*SPEF "ieee 1481-1999"
*DESIGN "gpio_control_block"
*DATE "11:11:11 Fri 11 11, 1111"
*VENDOR "OpenRCX"
*PROGRAM "Parallel Extraction"
*VERSION "1.0"
*DESIGN_FLOW "NAME_SCOPE LOCAL" "PIN_CAP NONE"
*DIVIDER /
*DELIMITER :
*BUS_DELIMITER []
*T_UNIT 1 NS
*C_UNIT 1 PF
*R_UNIT 1 OHM
*L_UNIT 1 HENRY

*NAME_MAP
*1 gpio_defaults[0]
*2 gpio_defaults[10]
*3 gpio_defaults[11]
*4 gpio_defaults[12]
*5 gpio_defaults[1]
*6 gpio_defaults[2]
*7 gpio_defaults[3]
*8 gpio_defaults[4]
*9 gpio_defaults[5]
*10 gpio_defaults[6]
*11 gpio_defaults[7]
*12 gpio_defaults[8]
*13 gpio_defaults[9]
*14 mgmt_gpio_in
*15 mgmt_gpio_oeb
*16 mgmt_gpio_out
*17 one
*18 pad_gpio_ana_en
*19 pad_gpio_ana_pol
*20 pad_gpio_ana_sel
*21 pad_gpio_dm[0]
*22 pad_gpio_dm[1]
*23 pad_gpio_dm[2]
*24 pad_gpio_holdover
*25 pad_gpio_ib_mode_sel
*26 pad_gpio_in
*27 pad_gpio_inenb
*28 pad_gpio_out
*29 pad_gpio_outenb
*30 pad_gpio_slow_sel
*31 pad_gpio_vtrip_sel
*32 resetn
*33 resetn_out
*34 serial_clock
*35 serial_clock_out
*36 serial_data_in
*37 serial_data_out
*38 serial_load
*39 serial_load_out
*40 user_gpio_in
*41 user_gpio_oeb
*42 user_gpio_out
*47 zero
*48 _000_
*49 _001_
*50 _002_
*51 _003_
*52 _004_
*53 _005_
*54 _006_
*55 _007_
*56 _008_
*57 _009_
*58 _010_
*59 _011_
*60 _012_
*61 _013_
*62 _014_
*63 _015_
*64 _016_
*65 _017_
*66 _018_
*67 _019_
*68 _020_
*69 _021_
*70 _022_
*71 _023_
*72 _024_
*73 _025_
*74 _026_
*75 _027_
*76 _042_
*77 _043_
*78 _044_
*79 _045_
*80 _046_
*81 _047_
*82 _048_
*83 _049_
*84 _050_
*85 _051_
*86 _052_
*87 _053_
*88 _054_
*89 _055_
*90 _056_
*91 _057_
*92 _058_
*93 _059_
*94 _060_
*95 _061_
*96 _062_
*97 _063_
*98 _064_
*99 _065_
*100 _066_
*101 _067_
*102 _068_
*103 _069_
*104 _070_
*105 _071_
*106 _072_
*107 _073_
*108 _074_
*109 _075_
*110 _076_
*111 _077_
*112 _078_
*113 _079_
*114 _080_
*115 _081_
*116 _082_
*117 _083_
*118 _084_
*119 clknet_0__068_
*120 clknet_0_serial_clock
*121 clknet_0_serial_load
*122 clknet_1_0__leaf__068_
*123 clknet_1_0__leaf_serial_clock
*124 clknet_1_0__leaf_serial_load
*125 clknet_1_1__leaf__068_
*126 clknet_1_1__leaf_serial_clock
*127 clknet_1_1__leaf_serial_load
*128 gpio_logic1
*129 gpio_outenb
*130 mgmt_ena
*131 net1
*132 net10
*133 net11
*134 net12
*135 net13
*136 net14
*137 net15
*138 net16
*139 net17
*140 net18
*141 net19
*142 net2
*143 net20
*144 net21
*145 net22
*146 net23
*147 net24
*148 net25
*149 net26
*150 net27
*151 net28
*152 net29
*153 net3
*154 net30
*155 net31
*156 net32
*157 net33
*158 net34
*159 net35
*160 net36
*161 net37
*162 net38
*163 net39
*164 net4
*165 net40
*166 net41
*167 net42
*168 net43
*169 net44
*170 net45
*171 net46
*172 net47
*173 net48
*174 net49
*175 net5
*176 net50
*177 net51
*178 net52
*179 net53
*180 net6
*181 net7
*182 net8
*183 net9
*184 shift_register\[0\]
*185 shift_register\[10\]
*186 shift_register\[11\]
*187 shift_register\[12\]
*188 shift_register\[1\]
*189 shift_register\[2\]
*190 shift_register\[3\]
*191 shift_register\[4\]
*192 shift_register\[5\]
*193 shift_register\[6\]
*194 shift_register\[7\]
*195 shift_register\[8\]
*196 shift_register\[9\]
*197 FILLER_0_26
*198 FILLER_0_31
*199 FILLER_0_38
*200 FILLER_0_45
*201 FILLER_0_52
*202 FILLER_0_57
*203 FILLER_0_64
*204 FILLER_0_71
*205 FILLER_0_80
*206 FILLER_0_92
*207 FILLER_10_26
*208 FILLER_10_29
*209 FILLER_10_3
*210 FILLER_10_52
*211 FILLER_10_82
*212 FILLER_10_85
*213 FILLER_10_92
*214 FILLER_11_3
*215 FILLER_11_30
*216 FILLER_11_54
*217 FILLER_11_57
*218 FILLER_11_85
*219 FILLER_11_9
*220 FILLER_11_92
*221 FILLER_12_26
*222 FILLER_12_29
*223 FILLER_12_3
*224 FILLER_12_39
*225 FILLER_12_67
*226 FILLER_12_79
*227 FILLER_12_83
*228 FILLER_12_85
*229 FILLER_12_92
*230 FILLER_13_16
*231 FILLER_13_3
*232 FILLER_13_46
*233 FILLER_13_54
*234 FILLER_13_57
*235 FILLER_13_67
*236 FILLER_13_7
*237 FILLER_13_92
*238 FILLER_14_26
*239 FILLER_14_29
*240 FILLER_14_3
*241 FILLER_14_33
*242 FILLER_14_42
*243 FILLER_14_46
*244 FILLER_14_67
*245 FILLER_14_77
*246 FILLER_14_83
*247 FILLER_14_85
*248 FILLER_14_91
*249 FILLER_15_24
*250 FILLER_15_3
*251 FILLER_15_54
*252 FILLER_15_57
*253 FILLER_15_66
*254 FILLER_15_90
*255 FILLER_16_14
*256 FILLER_16_26
*257 FILLER_16_29
*258 FILLER_16_3
*259 FILLER_16_51
*260 FILLER_16_81
*261 FILLER_16_85
*262 FILLER_16_92
*263 FILLER_17_13
*264 FILLER_17_3
*265 FILLER_17_43
*266 FILLER_17_54
*267 FILLER_17_57
*268 FILLER_17_85
*269 FILLER_17_92
*270 FILLER_18_14
*271 FILLER_18_26
*272 FILLER_18_29
*273 FILLER_18_3
*274 FILLER_18_45
*275 FILLER_18_69
*276 FILLER_18_78
*277 FILLER_18_85
*278 FILLER_18_91
*279 FILLER_19_3
*280 FILLER_19_30
*281 FILLER_19_54
*282 FILLER_19_57
*283 FILLER_19_79
*284 FILLER_19_9
*285 FILLER_19_91
*286 FILLER_1_26
*287 FILLER_1_31
*288 FILLER_1_38
*289 FILLER_1_45
*290 FILLER_1_52
*291 FILLER_1_59
*292 FILLER_1_66
*293 FILLER_1_73
*294 FILLER_1_80
*295 FILLER_1_85
*296 FILLER_1_92
*297 FILLER_20_26
*298 FILLER_20_29
*299 FILLER_20_3
*300 FILLER_20_34
*301 FILLER_20_64
*302 FILLER_20_70
*303 FILLER_20_79
*304 FILLER_20_83
*305 FILLER_20_85
*306 FILLER_20_92
*307 FILLER_21_14
*308 FILLER_21_3
*309 FILLER_21_44
*310 FILLER_21_54
*311 FILLER_21_57
*312 FILLER_21_81
*313 FILLER_21_85
*314 FILLER_21_92
*315 FILLER_22_26
*316 FILLER_22_29
*317 FILLER_22_3
*318 FILLER_22_40
*319 FILLER_22_72
*320 FILLER_22_76
*321 FILLER_22_81
*322 FILLER_22_85
*323 FILLER_22_91
*324 FILLER_23_14
*325 FILLER_23_3
*326 FILLER_23_44
*327 FILLER_23_48
*328 FILLER_23_54
*329 FILLER_23_57
*330 FILLER_23_61
*331 FILLER_23_88
*332 FILLER_24_26
*333 FILLER_24_29
*334 FILLER_24_3
*335 FILLER_24_34
*336 FILLER_24_43
*337 FILLER_24_67
*338 FILLER_24_81
*339 FILLER_24_85
*340 FILLER_24_92
*341 FILLER_25_11
*342 FILLER_25_15
*343 FILLER_25_21
*344 FILLER_25_3
*345 FILLER_25_30
*346 FILLER_25_42
*347 FILLER_25_54
*348 FILLER_25_57
*349 FILLER_25_61
*350 FILLER_25_82
*351 FILLER_25_86
*352 FILLER_25_91
*353 FILLER_26_10
*354 FILLER_26_18
*355 FILLER_26_26
*356 FILLER_26_29
*357 FILLER_26_3
*358 FILLER_26_46
*359 FILLER_26_54
*360 FILLER_26_57
*361 FILLER_26_61
*362 FILLER_26_82
*363 FILLER_26_85
*364 FILLER_26_91
*365 FILLER_2_26
*366 FILLER_2_31
*367 FILLER_2_39
*368 FILLER_2_44
*369 FILLER_2_50
*370 FILLER_2_52
*371 FILLER_2_57
*372 FILLER_2_64
*373 FILLER_2_71
*374 FILLER_2_79
*375 FILLER_2_85
*376 FILLER_2_92
*377 FILLER_3_26
*378 FILLER_3_37
*379 FILLER_3_44
*380 FILLER_3_51
*381 FILLER_3_58
*382 FILLER_3_69
*383 FILLER_3_76
*384 FILLER_3_80
*385 FILLER_3_85
*386 FILLER_3_92
*387 FILLER_4_26
*388 FILLER_4_31
*389 FILLER_4_38
*390 FILLER_4_42
*391 FILLER_4_46
*392 FILLER_4_50
*393 FILLER_4_52
*394 FILLER_4_57
*395 FILLER_4_65
*396 FILLER_4_69
*397 FILLER_4_77
*398 FILLER_4_82
*399 FILLER_4_92
*400 FILLER_5_26
*401 FILLER_5_38
*402 FILLER_5_45
*403 FILLER_5_52
*404 FILLER_5_59
*405 FILLER_5_63
*406 FILLER_5_67
*407 FILLER_5_74
*408 FILLER_5_78
*409 FILLER_5_80
*410 FILLER_5_92
*411 FILLER_6_26
*412 FILLER_6_31
*413 FILLER_6_42
*414 FILLER_6_49
*415 FILLER_6_52
*416 FILLER_6_58
*417 FILLER_6_65
*418 FILLER_6_72
*419 FILLER_6_80
*420 FILLER_6_84
*421 FILLER_6_92
*422 FILLER_7_26
*423 FILLER_7_32
*424 FILLER_7_36
*425 FILLER_7_44
*426 FILLER_7_54
*427 FILLER_7_58
*428 FILLER_7_64
*429 FILLER_7_71
*430 FILLER_7_80
*431 FILLER_7_86
*432 FILLER_7_91
*433 FILLER_8_10
*434 FILLER_8_18
*435 FILLER_8_26
*436 FILLER_8_29
*437 FILLER_8_3
*438 FILLER_8_51
*439 FILLER_8_55
*440 FILLER_8_57
*441 FILLER_8_67
*442 FILLER_8_75
*443 FILLER_8_82
*444 FILLER_8_85
*445 FILLER_8_91
*446 FILLER_9_16
*447 FILLER_9_24
*448 FILLER_9_3
*449 FILLER_9_45
*450 FILLER_9_49
*451 FILLER_9_54
*452 FILLER_9_57
*453 FILLER_9_7
*454 FILLER_9_87
*455 FILLER_9_93
*456 PHY_0
*457 PHY_1
*458 PHY_10
*459 PHY_11
*460 PHY_12
*461 PHY_13
*462 PHY_14
*463 PHY_15
*464 PHY_16
*465 PHY_17
*466 PHY_18
*467 PHY_19
*468 PHY_2
*469 PHY_20
*470 PHY_21
*471 PHY_22
*472 PHY_23
*473 PHY_24
*474 PHY_25
*475 PHY_26
*476 PHY_27
*477 PHY_28
*478 PHY_29
*479 PHY_3
*480 PHY_30
*481 PHY_31
*482 PHY_32
*483 PHY_33
*484 PHY_34
*485 PHY_35
*486 PHY_36
*487 PHY_37
*488 PHY_38
*489 PHY_39
*490 PHY_4
*491 PHY_40
*492 PHY_41
*493 PHY_42
*494 PHY_43
*495 PHY_44
*496 PHY_45
*497 PHY_46
*498 PHY_47
*499 PHY_48
*500 PHY_49
*501 PHY_5
*502 PHY_50
*503 PHY_51
*504 PHY_52
*505 PHY_53
*506 PHY_6
*507 PHY_7
*508 PHY_8
*509 PHY_9
*510 TAP_54
*511 TAP_55
*512 TAP_56
*513 TAP_57
*514 TAP_58
*515 TAP_59
*516 TAP_60
*517 TAP_61
*518 TAP_62
*519 TAP_63
*520 TAP_64
*521 TAP_65
*522 TAP_66
*523 TAP_67
*524 TAP_68
*525 TAP_69
*526 TAP_70
*527 TAP_71
*528 TAP_72
*529 TAP_73
*530 TAP_74
*531 TAP_75
*532 TAP_76
*533 TAP_77
*534 TAP_78
*535 TAP_79
*536 TAP_80
*537 TAP_81
*538 TAP_82
*539 TAP_83
*540 TAP_84
*541 TAP_85
*542 TAP_86
*543 TAP_87
*544 TAP_88
*545 TAP_89
*546 TAP_90
*547 TAP_91
*548 TAP_92
*549 TAP_93
*550 _085_
*551 _086_
*552 _087_
*553 _088_
*554 _089_
*555 _090_
*556 _091_
*557 _092_
*558 _093_
*559 _094_
*560 _095_
*561 _096_
*562 _097_
*563 _098_
*564 _099_
*565 _100_
*566 _101_
*567 _102_
*568 _103_
*569 _104_
*570 _105_
*571 _106__5
*572 _107_
*573 _108_
*574 _109_
*575 _110_
*576 _111_
*577 _112__6
*578 _113_
*579 _114_
*580 _115_
*581 _116__7
*582 _117_
*583 _118_
*584 _119_
*585 _120__8
*586 _121_
*587 _122_
*588 _123_
*589 _124__9
*590 _125_
*591 _126_
*592 _127_
*593 _128__10
*594 _129_
*595 _130_
*596 _131_
*597 _132__11
*598 _133_
*599 _134_
*600 _135_
*601 _136__12
*602 _137_
*603 _138_
*604 _139_
*605 _140__13
*606 _141_
*607 _142_
*608 _143_
*609 _144__14
*610 _145_
*611 _146_
*612 _147_
*613 _148__1
*614 _149_
*615 _150_
*616 _151_
*617 _152__2
*618 _153_
*619 _154_
*620 _155_
*621 _156__3
*622 _157_
*623 _158__4
*624 _159_
*625 _160_
*626 _161_
*627 _162_
*628 _163_
*629 _164_
*630 _165_
*631 _166_
*632 _167_
*633 _168_
*634 _169_
*635 _170_
*636 _171_
*637 _172_
*638 _173_
*639 _174_
*640 _175_
*641 _176_
*642 _177_
*643 _178_
*644 _179_
*645 _180_
*646 _181_
*647 _182_
*648 _183_
*649 _184_
*650 _185_
*651 _186_
*652 _187_
*653 _188_
*654 _189_
*655 clkbuf_0__068_
*656 clkbuf_0_serial_clock
*657 clkbuf_0_serial_load
*658 clkbuf_1_0__f__068_
*659 clkbuf_1_0__f_serial_clock
*660 clkbuf_1_0__f_serial_load
*661 clkbuf_1_1__f__068_
*662 clkbuf_1_1__f_serial_clock
*663 clkbuf_1_1__f_serial_load
*664 const_source
*665 fanout18
*666 fanout19
*667 gpio_in_buf
*668 gpio_logic_high
*669 hold1
*670 hold10
*671 hold11
*672 hold12
*673 hold13
*674 hold14
*675 hold15
*676 hold16
*677 hold17
*678 hold18
*679 hold19
*680 hold2
*681 hold20
*682 hold3
*683 hold4
*684 hold5
*685 hold6
*686 hold7
*687 hold8
*688 hold9
*689 output1
*690 output10
*691 output11
*692 output12
*693 output13
*694 output14
*695 output15
*696 output16
*697 output17
*698 output2
*699 output3
*700 output4
*701 output5
*702 output6
*703 output7
*704 output8
*705 output9

*PORTS
gpio_defaults[0] I
gpio_defaults[10] I
gpio_defaults[11] I
gpio_defaults[12] I
gpio_defaults[1] I
gpio_defaults[2] I
gpio_defaults[3] I
gpio_defaults[4] I
gpio_defaults[5] I
gpio_defaults[6] I
gpio_defaults[7] I
gpio_defaults[8] I
gpio_defaults[9] I
mgmt_gpio_in O
mgmt_gpio_oeb I
mgmt_gpio_out I
one O
pad_gpio_ana_en O
pad_gpio_ana_pol O
pad_gpio_ana_sel O
pad_gpio_dm[0] O
pad_gpio_dm[1] O
pad_gpio_dm[2] O
pad_gpio_holdover O
pad_gpio_ib_mode_sel O
pad_gpio_in I
pad_gpio_inenb O
pad_gpio_out O
pad_gpio_outenb O
pad_gpio_slow_sel O
pad_gpio_vtrip_sel O
resetn I
resetn_out O
serial_clock I
serial_clock_out O
serial_data_in I
serial_data_out O
serial_load I
serial_load_out O
user_gpio_in O
user_gpio_oeb I
user_gpio_out I
zero O

*D_NET *1 0.00323269
*CONN
*P gpio_defaults[0] I
*I *568:B I *D sky130_fd_sc_hd__or2_1
*I *677:A I *D sky130_fd_sc_hd__dlygate4sd3_1
*CAP
1 gpio_defaults[0] 0.000556904
2 *568:B 2.41714e-05
3 *677:A 0.00103527
4 *1:10 0.00161634
5 *568:B *575:A 0
6 *568:B *595:B 0
7 *677:A *591:B 0
8 *677:A *602:A 0
9 *677:A *627:D 0
10 *677:A *639:D 0
11 *677:A *646:RESET_B 0
12 *677:A *7:15 0
13 *677:A *8:23 0
14 *677:A *141:55 0
15 *677:A *196:8 0
16 *1:10 *575:A 0
17 *1:10 *575:B 0
18 *1:10 *595:B 0
19 *1:10 *5:5 0
20 *1:10 *98:16 0
21 *1:10 *105:7 0
22 *1:10 *183:21 0
*RES
1 gpio_defaults[0] *1:10 16.5893 
2 *1:10 *677:A 41.6393 
3 *1:10 *568:B 9.83571 
*END

*D_NET *2 0.00241858
*CONN
*P gpio_defaults[10] I
*I *674:A I *D sky130_fd_sc_hd__dlygate4sd3_1
*I *599:B I *D sky130_fd_sc_hd__or2_1
*CAP
1 gpio_defaults[10] 0.000305016
2 *674:A 0
3 *599:B 0.000904273
4 *2:9 0.00120929
5 *599:B *626:SET_B 0
6 *599:B *627:D 0
7 *599:B *655:A 0
8 *599:B *3:9 0
9 *599:B *13:24 0
10 *599:B *77:14 0
11 *599:B *78:10 0
12 *599:B *100:12 0
13 *599:B *100:14 0
14 *599:B *100:79 0
15 *2:9 resetn_out 0
16 *2:9 *653:A 0
17 *2:9 *3:9 0
18 *2:9 *13:8 0
19 *2:9 *184:14 0
*RES
1 gpio_defaults[10] *2:9 7.05357 
2 *2:9 *599:B 34.1036 
3 *2:9 *674:A 13.8 
*END

*D_NET *3 0.00493456
*CONN
*P gpio_defaults[11] I
*I *603:B I *D sky130_fd_sc_hd__or2_1
*I *678:A I *D sky130_fd_sc_hd__dlygate4sd3_1
*CAP
1 gpio_defaults[11] 0.000804107
2 *603:B 0.000660878
3 *678:A 0.0010023
4 *3:9 0.00246728
5 *603:B *630:CLK_N 0
6 *603:B *13:24 0
7 *603:B *57:34 0
8 *678:A *626:SET_B 0
9 *678:A *631:SET_B 0
10 *678:A *647:RESET_B 0
11 *678:A *13:24 0
12 *678:A *54:32 0
13 *678:A *119:11 0
14 *678:A *126:42 0
15 *678:A *126:73 0
16 *678:A *148:23 0
17 *678:A *177:11 0
18 *3:9 resetn_out 0
19 *3:9 *637:CLK 0
20 *3:9 *4:16 0
21 *3:9 *13:24 0
22 *3:9 *126:84 0
23 *3:9 *136:42 0
24 *599:B *3:9 0
25 *2:9 *3:9 0
*RES
1 gpio_defaults[11] *3:9 18.3304 
2 *3:9 *678:A 28.1858 
3 *3:9 *603:B 24.2837 
*END

*D_NET *4 0.0151198
*CONN
*P gpio_defaults[12] I
*I *610:B I *D sky130_fd_sc_hd__nand2_1
*I *607:B I *D sky130_fd_sc_hd__or2_1
*CAP
1 gpio_defaults[12] 0.000954651
2 *610:B 0.00196417
3 *607:B 0
4 *4:42 0.00449018
5 *4:36 0.0046411
6 *4:16 0.00306974
7 *610:B mgmt_gpio_in 0
8 *610:B one 0
9 *610:B pad_gpio_ana_en 0
10 *610:B zero 0
11 *610:B *556:A 0
12 *610:B *654:A 0
13 *610:B *35:11 0
14 *610:B *48:20 0
15 *610:B *54:17 0
16 *610:B *62:26 0
17 *610:B *69:24 0
18 *610:B *82:21 0
19 *610:B *85:13 0
20 *610:B *164:10 0
21 *4:16 *633:D 0
22 *4:16 *637:CLK 0
23 *4:16 *663:A 0
24 *4:16 *685:A 0
25 *4:16 *136:42 0
26 *4:16 *146:26 0
27 *4:36 resetn_out 0
28 *4:36 *607:A 0
29 *4:36 *630:CLK_N 0
30 *4:36 *630:RESET_B 0
31 *4:36 *656:A 0
32 *4:36 *666:A 0
33 *4:36 *691:A 0
34 *4:36 *24:7 0
35 *4:36 *31:9 0
36 *4:36 *56:36 0
37 *4:36 *57:34 0
38 *4:36 *146:26 0
39 *4:42 *35:11 0
40 *4:42 *39:15 0
41 *4:42 *77:20 0
42 *4:42 *83:20 0
43 *4:42 *132:20 0
44 *4:42 *136:22 0
45 *3:9 *4:16 0
*RES
1 gpio_defaults[12] *4:16 25.2321 
2 *4:16 *607:B 9.3 
3 *4:16 *4:36 47.6846 
4 *4:36 *4:42 49.1151 
5 *4:42 *610:B 42.9329 
*END

*D_NET *5 0.00942078
*CONN
*P gpio_defaults[1] I
*I *595:B I *D sky130_fd_sc_hd__or2_1
*I *598:B I *D sky130_fd_sc_hd__nand2_1
*CAP
1 gpio_defaults[1] 0.000260596
2 *595:B 0.000420112
3 *598:B 0
4 *5:27 0.00185212
5 *5:15 0.0034354
6 *5:12 0.00217756
7 *5:5 0.00127499
8 *595:B *575:B 0
9 *595:B *100:102 0
10 *595:B *105:7 0
11 *5:5 *575:B 0
12 *5:5 *6:7 0
13 *5:5 *139:10 0
14 *5:5 *183:21 0
15 *5:12 *676:A 0
16 *5:12 *139:10 0
17 *5:15 *76:17 0
18 *5:15 *105:8 0
19 *5:27 *569:A 0
20 *5:27 *578:B 0
21 *5:27 *584:A 0
22 *5:27 *586:B 0
23 *5:27 *695:A 0
24 *5:27 *9:36 0
25 *5:27 *42:24 0
26 *5:27 *50:28 0
27 *5:27 *50:34 0
28 *5:27 *51:24 0
29 *5:27 *98:36 0
30 *568:B *595:B 0
31 *1:10 *595:B 0
32 *1:10 *5:5 0
*RES
1 gpio_defaults[1] *5:5 5.98214 
2 *5:5 *5:12 21.9821 
3 *5:12 *5:15 40.4464 
4 *5:15 *5:27 42.6406 
5 *5:27 *598:B 9.3 
6 *5:5 *595:B 22.5679 
*END

*D_NET *6 0.00252482
*CONN
*P gpio_defaults[2] I
*I *676:A I *D sky130_fd_sc_hd__dlygate4sd3_1
*I *575:B I *D sky130_fd_sc_hd__or2_1
*CAP
1 gpio_defaults[2] 0.000306687
2 *676:A 0.000883177
3 *575:B 7.25458e-05
4 *6:7 0.00126241
5 *676:A *591:B 0
6 *676:A *661:A 0
7 *676:A *7:15 0
8 *676:A *8:23 0
9 *676:A *125:21 0
10 *676:A *189:6 0
11 *6:7 *7:15 0
12 *595:B *575:B 0
13 *1:10 *575:B 0
14 *5:5 *575:B 0
15 *5:5 *6:7 0
16 *5:12 *676:A 0
*RES
1 gpio_defaults[2] *6:7 7.08036 
2 *6:7 *575:B 15.4518 
3 *6:7 *676:A 33.8446 
*END

*D_NET *7 0.00732585
*CONN
*P gpio_defaults[3] I
*I *587:B I *D sky130_fd_sc_hd__or2_1
*I *679:A I *D sky130_fd_sc_hd__dlygate4sd3_1
*CAP
1 gpio_defaults[3] 0.00220043
2 *587:B 4.53482e-05
3 *679:A 0.00141715
4 *7:15 0.00366292
5 *587:B *78:10 0
6 *587:B *100:49 0
7 *679:A *592:A 0
8 *679:A *629:RESET_B 0
9 *679:A *660:A 0
10 *679:A *663:A 0
11 *679:A *49:21 0
12 *679:A *64:19 0
13 *679:A *130:26 0
14 *7:15 *624:RESET_B 0
15 *7:15 *630:CLK_N 0
16 *7:15 *630:SET_B 0
17 *7:15 *638:RESET_B 0
18 *7:15 *663:A 0
19 *7:15 *8:23 0
20 *7:15 *10:33 0
21 *7:15 *27:13 0
22 *7:15 *56:36 0
23 *7:15 *130:26 0
24 *7:15 *141:14 0
25 *7:15 *141:35 0
26 *7:15 *141:50 0
27 *7:15 *186:10 0
28 *676:A *7:15 0
29 *677:A *7:15 0
30 *6:7 *7:15 0
*RES
1 gpio_defaults[3] *7:15 35.0462 
2 *7:15 *679:A 37.6919 
3 *7:15 *587:B 14.7464 
*END

*D_NET *8 0.00511261
*CONN
*P gpio_defaults[4] I
*I *675:A I *D sky130_fd_sc_hd__dlygate4sd3_1
*I *591:B I *D sky130_fd_sc_hd__or2_1
*CAP
1 gpio_defaults[4] 0.000992229
2 *675:A 4.53482e-05
3 *591:B 0.00151873
4 *8:23 0.0025563
5 *591:B *627:D 0
6 *591:B *640:CLK 0
7 *591:B *640:D 0
8 *591:B *641:D 0
9 *591:B *658:A 0
10 *591:B *98:36 0
11 *591:B *100:34 0
12 *591:B *174:9 0
13 *591:B *190:8 0
14 *591:B *196:8 0
15 *8:23 *563:C 0
16 *8:23 *630:D 0
17 *8:23 *638:RESET_B 0
18 *8:23 *639:D 0
19 *8:23 *27:13 0
20 *8:23 *97:36 0
21 *676:A *591:B 0
22 *676:A *8:23 0
23 *677:A *591:B 0
24 *677:A *8:23 0
25 *7:15 *8:23 0
*RES
1 gpio_defaults[4] *8:23 31.5536 
2 *8:23 *591:B 48.1214 
3 *8:23 *675:A 14.7464 
*END

*D_NET *9 0.00723568
*CONN
*P gpio_defaults[5] I
*I *611:B I *D sky130_fd_sc_hd__or2_1
*I *614:B I *D sky130_fd_sc_hd__nand2_1
*CAP
1 gpio_defaults[5] 0.0019204
2 *611:B 0.000410406
3 *614:B 0.000117214
4 *9:36 0.00169744
5 *9:30 0.00309022
6 *611:B *623:A 0
7 *611:B *635:D 0
8 *611:B *124:17 0
9 *611:B *157:13 0
10 *614:B *623:A 0
11 *614:B *157:13 0
12 *9:30 *563:C 0
13 *9:30 *602:A 0
14 *9:30 *628:SET_B 0
15 *9:30 *629:D 0
16 *9:30 *630:SET_B 0
17 *9:30 *638:CLK 0
18 *9:30 *646:D 0
19 *9:30 *646:RESET_B 0
20 *9:30 *10:33 0
21 *9:30 *97:36 0
22 *9:30 *126:56 0
23 *9:30 *152:11 0
24 *9:30 *183:21 0
25 *9:30 *195:12 0
26 *9:36 *580:A 0
27 *9:36 *592:A 0
28 *9:36 *629:D 0
29 *9:36 *640:RESET_B 0
30 *9:36 *667:TE 0
31 *9:36 *39:15 0
32 *9:36 *50:28 0
33 *9:36 *82:21 0
34 *9:36 *125:28 0
35 *5:27 *9:36 0
*RES
1 gpio_defaults[5] *9:30 48.184 
2 *9:30 *9:36 22.9021 
3 *9:36 *614:B 16.3446 
4 *9:36 *611:B 22.5946 
*END

*D_NET *10 0.00966368
*CONN
*P gpio_defaults[6] I
*I *615:B I *D sky130_fd_sc_hd__or2_1
*I *618:B I *D sky130_fd_sc_hd__nand2_1
*CAP
1 gpio_defaults[6] 0.0028747
2 *615:B 0
3 *618:B 0.00135759
4 *10:38 0.00195714
5 *10:33 0.00347425
6 *618:B *572:A 0
7 *618:B *601:A 0
8 *618:B *612:A 0
9 *618:B *617:A 0
10 *618:B *635:D 0
11 *618:B *689:A 0
12 *618:B *11:27 0
13 *618:B *30:21 0
14 *618:B *68:13 0
15 *618:B *81:10 0
16 *618:B *122:46 0
17 *618:B *134:13 0
18 *618:B *140:62 0
19 *618:B *175:29 0
20 *10:33 *593:A 0
21 *10:33 *607:A 0
22 *10:33 *624:SET_B 0
23 *10:33 *656:A 0
24 *10:33 *11:21 0
25 *10:33 *15:57 0
26 *10:33 *54:32 0
27 *10:33 *56:36 0
28 *10:33 *76:11 0
29 *10:33 *93:34 0
30 *10:33 *97:36 0
31 *10:33 *100:94 0
32 *10:33 *141:124 0
33 *10:33 *147:24 0
34 *10:33 *152:11 0
35 *10:33 *180:14 0
36 *10:38 *551:A 0
37 *10:38 *553:A 0
38 *10:38 *629:RESET_B 0
39 *10:38 *654:TE_B 0
40 *10:38 *11:21 0
41 *10:38 *11:27 0
42 *10:38 *85:13 0
43 *10:38 *164:10 0
44 *7:15 *10:33 0
45 *9:30 *10:33 0
*RES
1 gpio_defaults[6] *10:33 43.984 
2 *10:33 *10:38 17.9911 
3 *10:38 *618:B 47.7512 
4 *10:38 *615:B 9.3 
*END

*D_NET *11 0.00775784
*CONN
*P gpio_defaults[7] I
*I *619:B I *D sky130_fd_sc_hd__or2_1
*I *622:B I *D sky130_fd_sc_hd__nand2_1
*CAP
1 gpio_defaults[7] 0.00246333
2 *619:B 2.56688e-05
3 *622:B 0.000834359
4 *11:27 0.00141559
5 *11:21 0.00301889
6 *622:B *555:B 0
7 *622:B *556:A 0
8 *622:B *634:RESET_B 0
9 *622:B *689:A 0
10 *622:B *698:A 0
11 *622:B *64:19 0
12 *622:B *140:91 0
13 *11:21 *553:A 0
14 *11:21 *554:B1 0
15 *11:21 *602:B 0
16 *11:21 *624:D 0
17 *11:21 *626:CLK_N 0
18 *11:21 *627:D 0
19 *11:21 *630:CLK_N 0
20 *11:21 *630:RESET_B 0
21 *11:21 *638:D 0
22 *11:21 *681:A 0
23 *11:21 *704:A 0
24 *11:21 *12:5 0
25 *11:21 *13:24 0
26 *11:21 *15:57 0
27 *11:21 *54:32 0
28 *11:21 *82:11 0
29 *11:21 *93:34 0
30 *11:21 *126:73 0
31 *11:21 *141:124 0
32 *11:27 *551:A 0
33 *11:27 *615:A 0
34 *11:27 *629:RESET_B 0
35 *11:27 *654:TE_B 0
36 *11:27 *689:A 0
37 *11:27 *122:46 0
38 *618:B *11:27 0
39 *10:33 *11:21 0
40 *10:38 *11:21 0
41 *10:38 *11:27 0
*RES
1 gpio_defaults[7] *11:21 42.2876 
2 *11:21 *11:27 12.7768 
3 *11:27 *622:B 40.9429 
4 *11:27 *619:B 14.3357 
*END

*D_NET *12 0.00221658
*CONN
*P gpio_defaults[8] I
*I *579:B I *D sky130_fd_sc_hd__or2_1
*I *681:A I *D sky130_fd_sc_hd__dlygate4sd3_1
*CAP
1 gpio_defaults[8] 0.000346072
2 *579:B 6.98028e-05
3 *681:A 0.000692415
4 *12:5 0.00110829
5 *579:B *13:8 0
6 *681:A *570:A 0
7 *681:A *624:D 0
8 *681:A *626:CLK_N 0
9 *681:A *626:D 0
10 *681:A *630:RESET_B 0
11 *681:A *13:8 0
12 *681:A *150:14 0
13 *12:5 serial_data_out 0
14 *12:5 *13:8 0
15 *11:21 *681:A 0
16 *11:21 *12:5 0
*RES
1 gpio_defaults[8] *12:5 7.95536 
2 *12:5 *681:A 29.5946 
3 *12:5 *579:B 15.4518 
*END

*D_NET *13 0.0120929
*CONN
*P gpio_defaults[9] I
*I *583:B I *D sky130_fd_sc_hd__or2_1
*I *586:B I *D sky130_fd_sc_hd__nand2_1
*CAP
1 gpio_defaults[9] 0.000612195
2 *583:B 0
3 *586:B 0.00118163
4 *13:31 0.00348708
5 *13:24 0.00425261
6 *13:8 0.00255936
7 *586:B *558:B 0
8 *586:B *562:A 0
9 *586:B *565:B 0
10 *586:B *42:24 0
11 *586:B *51:24 0
12 *586:B *51:33 0
13 *586:B *63:17 0
14 *586:B *69:24 0
15 *586:B *104:32 0
16 *586:B *104:34 0
17 *13:8 serial_data_out 0
18 *13:8 *570:A 0
19 *13:8 *583:A 0
20 *13:8 *653:A 0
21 *13:8 *130:26 0
22 *13:24 *630:CLK_N 0
23 *13:24 *655:A 0
24 *13:24 *54:32 0
25 *13:24 *57:34 0
26 *13:24 *88:34 0
27 *13:24 *130:26 0
28 *13:31 pad_gpio_ana_en 0
29 *13:31 *20:14 0
30 *13:31 *48:20 0
31 *13:31 *62:21 0
32 *13:31 *62:26 0
33 *13:31 *82:21 0
34 *13:31 *88:27 0
35 *13:31 *88:34 0
36 *13:31 *147:24 0
37 *579:B *13:8 0
38 *599:B *13:24 0
39 *603:B *13:24 0
40 *678:A *13:24 0
41 *681:A *13:8 0
42 *2:9 *13:8 0
43 *3:9 *13:24 0
44 *5:27 *586:B 0
45 *11:21 *13:24 0
46 *12:5 *13:8 0
*RES
1 gpio_defaults[9] *13:8 18.1429 
2 *13:8 *13:24 26.1415 
3 *13:24 *13:31 47.1457 
4 *13:31 *586:B 46.4502 
5 *13:8 *583:B 9.3 
*END

*D_NET *14 0.004553
*CONN
*P mgmt_gpio_in O
*I *654:Z O *D sky130_fd_sc_hd__ebufn_8
*CAP
1 mgmt_gpio_in 0.000135833
2 *654:Z 0.00214067
3 *14:12 0.0022765
4 mgmt_gpio_in one 0
5 mgmt_gpio_in zero 0
6 mgmt_gpio_in *69:24 0
7 *14:12 pad_gpio_ana_sel 0
8 *14:12 pad_gpio_dm[2] 0
9 *14:12 *15:17 0
10 *14:12 *15:45 0
11 *14:12 *30:21 0
12 *14:12 *40:14 0
13 *14:12 *51:39 0
14 *14:12 *62:26 0
15 *14:12 *64:19 0
16 *14:12 *69:24 0
17 *14:12 *93:34 0
18 *14:12 *130:38 0
19 *14:12 *141:124 0
20 *14:12 *148:23 0
21 *14:12 *155:14 0
22 *14:12 *180:35 0
23 *610:B mgmt_gpio_in 0
*RES
1 *654:Z *14:12 47.3373 
2 *14:12 mgmt_gpio_in 3.90193 
*END

*D_NET *15 0.00959593
*CONN
*P mgmt_gpio_oeb I
*I *553:B I *D sky130_fd_sc_hd__and3_1
*I *555:A I *D sky130_fd_sc_hd__nand2_1
*I *560:B I *D sky130_fd_sc_hd__nand3_1
*CAP
1 mgmt_gpio_oeb 7.65684e-05
2 *553:B 0
3 *555:A 0.000821672
4 *560:B 0.000202783
5 *15:57 0.00161098
6 *15:45 0.00284668
7 *15:17 0.00187472
8 *15:13 0.00216253
9 *555:A *562:B 0
10 *555:A *51:33 0
11 *555:A *68:17 0
12 *555:A *85:13 0
13 *15:13 one 0
14 *15:13 pad_gpio_ana_en 0
15 *15:17 *69:28 0
16 *15:17 *130:38 0
17 *15:45 pad_gpio_ib_mode_sel 0
18 *15:45 pad_gpio_slow_sel 0
19 *15:45 *57:21 0
20 *15:45 *69:28 0
21 *15:45 *83:40 0
22 *15:45 *146:20 0
23 *15:45 *154:20 0
24 *15:57 pad_gpio_ib_mode_sel 0
25 *15:57 *656:A 0
26 *15:57 *657:A 0
27 *15:57 *26:17 0
28 *15:57 *54:32 0
29 *15:57 *68:17 0
30 *15:57 *130:35 0
31 *15:57 *141:124 0
32 *15:57 *148:23 0
33 *10:33 *15:57 0
34 *11:21 *15:57 0
35 *14:12 *15:17 0
36 *14:12 *15:45 0
*RES
1 mgmt_gpio_oeb *15:13 3.80793 
2 *15:13 *15:17 22.3482 
3 *15:17 *560:B 13.5321 
4 *15:17 *555:A 36.3714 
5 *15:13 *15:45 40.9554 
6 *15:45 *15:57 44.4659 
7 *15:57 *553:B 9.3 
*END

*D_NET *16 0.00768203
*CONN
*P mgmt_gpio_out I
*I *561:A I *D sky130_fd_sc_hd__inv_2
*CAP
1 mgmt_gpio_out 0.00128776
2 *561:A 0.00255326
3 *16:13 0.00384102
4 *561:A zero 0
5 *561:A *552:A 0
6 *561:A *566:A 0
7 *561:A *651:A 0
8 *561:A *17:16 0
9 *561:A *49:21 0
10 *561:A *80:49 0
11 *561:A *148:13 0
12 *16:13 *20:14 0
13 *16:13 *35:14 0
14 *16:13 *39:16 0
15 *16:13 *42:24 0
16 *16:13 *80:38 0
17 *16:13 *93:27 0
18 *16:13 *148:16 0
*RES
1 mgmt_gpio_out *16:13 44.7754 
2 *16:13 *561:A 35.6352 
*END

*D_NET *17 0.00633108
*CONN
*P one O
*I *664:HI O *D sky130_fd_sc_hd__conb_1
*CAP
1 one 0.00100451
2 *664:HI 0.00216103
3 *17:16 0.00316554
4 one *62:26 0
5 one *69:24 0
6 one *97:17 0
7 one *130:38 0
8 *17:16 zero 0
9 *17:16 *26:21 0
10 *17:16 *56:17 0
11 *17:16 *62:21 0
12 *17:16 *93:20 0
13 *17:16 *132:20 0
14 mgmt_gpio_in one 0
15 *561:A *17:16 0
16 *610:B one 0
17 *15:13 one 0
*RES
1 *664:HI *17:16 41.1683 
2 *17:16 one 28.444 
*END

*D_NET *18 0.00342007
*CONN
*P pad_gpio_ana_en O
*I *689:X O *D sky130_fd_sc_hd__buf_2
*CAP
1 pad_gpio_ana_en 0.00171003
2 *689:X 0.00171003
3 pad_gpio_ana_en pad_gpio_ana_pol 0
4 pad_gpio_ana_en pad_gpio_dm[0] 0
5 pad_gpio_ana_en *562:A 0
6 pad_gpio_ana_en *30:21 0
7 pad_gpio_ana_en *32:50 0
8 pad_gpio_ana_en *48:20 0
9 pad_gpio_ana_en *51:33 0
10 pad_gpio_ana_en *54:17 0
11 pad_gpio_ana_en *69:24 0
12 pad_gpio_ana_en *83:40 0
13 pad_gpio_ana_en *88:27 0
14 pad_gpio_ana_en *154:14 0
15 *610:B pad_gpio_ana_en 0
16 *13:31 pad_gpio_ana_en 0
17 *15:13 pad_gpio_ana_en 0
*RES
1 *689:X pad_gpio_ana_en 42.5536 
*END

*D_NET *19 0.00455334
*CONN
*P pad_gpio_ana_pol O
*I *698:X O *D sky130_fd_sc_hd__buf_2
*CAP
1 pad_gpio_ana_pol 0.00227667
2 *698:X 0.00227667
3 pad_gpio_ana_pol pad_gpio_ana_sel 0
4 pad_gpio_ana_pol pad_gpio_dm[0] 0
5 pad_gpio_ana_pol *556:A 0
6 pad_gpio_ana_pol *635:CLK_N 0
7 pad_gpio_ana_pol *635:SET_B 0
8 pad_gpio_ana_pol *698:A 0
9 pad_gpio_ana_pol *30:21 0
10 pad_gpio_ana_pol *39:15 0
11 pad_gpio_ana_pol *48:20 0
12 pad_gpio_ana_pol *51:33 0
13 pad_gpio_ana_pol *77:30 0
14 pad_gpio_ana_pol *82:21 0
15 pad_gpio_ana_pol *147:14 0
16 pad_gpio_ana_en pad_gpio_ana_pol 0
*RES
1 *698:X pad_gpio_ana_pol 44.8744 
*END

*D_NET *20 0.00724478
*CONN
*P pad_gpio_ana_sel O
*I *699:X O *D sky130_fd_sc_hd__buf_2
*CAP
1 pad_gpio_ana_sel 0.00097965
2 *699:X 0.00264274
3 *20:14 0.00362239
4 pad_gpio_ana_sel pad_gpio_dm[0] 0
5 pad_gpio_ana_sel *30:21 0
6 pad_gpio_ana_sel *32:50 0
7 *20:14 *35:11 0
8 *20:14 *42:24 0
9 *20:14 *48:20 0
10 *20:14 *56:17 0
11 *20:14 *62:21 0
12 *20:14 *80:38 0
13 *20:14 *93:20 0
14 *20:14 *93:27 0
15 pad_gpio_ana_pol pad_gpio_ana_sel 0
16 *13:31 *20:14 0
17 *14:12 pad_gpio_ana_sel 0
18 *16:13 *20:14 0
*RES
1 *699:X *20:14 48.4247 
2 *20:14 pad_gpio_ana_sel 27.4083 
*END

*D_NET *21 0.00335125
*CONN
*P pad_gpio_dm[0] O
*I *700:X O *D sky130_fd_sc_hd__buf_2
*CAP
1 pad_gpio_dm[0] 0.00167562
2 *700:X 0.00167562
3 pad_gpio_dm[0] pad_gpio_dm[1] 0
4 pad_gpio_dm[0] *620:A 0
5 pad_gpio_dm[0] *700:A 0
6 pad_gpio_dm[0] *30:21 0
7 pad_gpio_dm[0] *32:50 0
8 pad_gpio_dm[0] *51:33 0
9 pad_gpio_dm[0] *54:17 0
10 pad_gpio_dm[0] *74:15 0
11 pad_gpio_dm[0] *83:40 0
12 pad_gpio_dm[0] *147:14 0
13 pad_gpio_dm[0] *147:24 0
14 pad_gpio_dm[0] *154:14 0
15 pad_gpio_dm[0] *157:13 0
16 pad_gpio_ana_en pad_gpio_dm[0] 0
17 pad_gpio_ana_pol pad_gpio_dm[0] 0
18 pad_gpio_ana_sel pad_gpio_dm[0] 0
*RES
1 *700:X pad_gpio_dm[0] 42.4452 
*END

*D_NET *22 0.00467822
*CONN
*P pad_gpio_dm[1] O
*I *701:X O *D sky130_fd_sc_hd__buf_2
*CAP
1 pad_gpio_dm[1] 0.00067311
2 *701:X 0.001666
3 *22:16 0.00233911
4 pad_gpio_dm[1] pad_gpio_dm[2] 0
5 pad_gpio_dm[1] *30:21 0
6 *22:16 *636:CLK_N 0
7 *22:16 *636:D 0
8 *22:16 *701:A 0
9 *22:16 *32:50 0
10 *22:16 *64:19 0
11 *22:16 *68:17 0
12 *22:16 *147:14 0
13 *22:16 *157:22 0
14 pad_gpio_dm[0] pad_gpio_dm[1] 0
*RES
1 *701:X *22:16 48.8557 
2 *22:16 pad_gpio_dm[1] 2.43773 
*END

*D_NET *23 0.00380276
*CONN
*P pad_gpio_dm[2] O
*I *702:X O *D sky130_fd_sc_hd__buf_2
*CAP
1 pad_gpio_dm[2] 0.00190138
2 *702:X 0.00190138
3 pad_gpio_dm[2] pad_gpio_holdover 0
4 pad_gpio_dm[2] *629:RESET_B 0
5 pad_gpio_dm[2] *26:17 0
6 pad_gpio_dm[2] *49:21 0
7 pad_gpio_dm[2] *78:20 0
8 pad_gpio_dm[2] *180:35 0
9 pad_gpio_dm[1] pad_gpio_dm[2] 0
10 *14:12 pad_gpio_dm[2] 0
*RES
1 *702:X pad_gpio_dm[2] 24.6085 
*END

*D_NET *24 0.00554364
*CONN
*P pad_gpio_holdover O
*I *703:X O *D sky130_fd_sc_hd__buf_2
*CAP
1 pad_gpio_holdover 0.00134891
2 *703:X 0.00142291
3 *24:7 0.00277182
4 pad_gpio_holdover pad_gpio_ib_mode_sel 0
5 pad_gpio_holdover pad_gpio_slow_sel 0
6 pad_gpio_holdover pad_gpio_vtrip_sel 0
7 pad_gpio_holdover *32:38 0
8 pad_gpio_holdover *40:17 0
9 pad_gpio_holdover *51:48 0
10 pad_gpio_holdover *57:34 0
11 pad_gpio_holdover *93:27 0
12 pad_gpio_holdover *146:15 0
13 pad_gpio_holdover *146:20 0
14 pad_gpio_holdover *148:23 0
15 *24:7 *31:9 0
16 *24:7 *51:48 0
17 *24:7 *56:36 0
18 pad_gpio_dm[2] pad_gpio_holdover 0
19 *4:36 *24:7 0
*RES
1 *703:X *24:7 43.4964 
2 *24:7 pad_gpio_holdover 41.194 
*END

*D_NET *25 0.00443879
*CONN
*P pad_gpio_ib_mode_sel O
*I *704:X O *D sky130_fd_sc_hd__buf_2
*CAP
1 pad_gpio_ib_mode_sel 0.000931296
2 *704:X 0.0012881
3 *25:10 0.00221939
4 pad_gpio_ib_mode_sel *657:A 0
5 pad_gpio_ib_mode_sel *26:17 0
6 pad_gpio_ib_mode_sel *40:17 0
7 pad_gpio_ib_mode_sel *130:38 0
8 pad_gpio_ib_mode_sel *146:20 0
9 pad_gpio_ib_mode_sel *148:23 0
10 *25:10 pad_gpio_slow_sel 0
11 *25:10 *69:28 0
12 *25:10 *132:40 0
13 *25:10 *141:132 0
14 pad_gpio_holdover pad_gpio_ib_mode_sel 0
15 *15:45 pad_gpio_ib_mode_sel 0
16 *15:57 pad_gpio_ib_mode_sel 0
*RES
1 *704:X *25:10 45.5857 
2 *25:10 pad_gpio_ib_mode_sel 34.8588 
*END

*D_NET *26 0.0123028
*CONN
*P pad_gpio_in I
*I *654:A I *D sky130_fd_sc_hd__ebufn_8
*I *566:A I *D sky130_fd_sc_hd__inv_2
*CAP
1 pad_gpio_in 0.00122707
2 *654:A 0.0013074
3 *566:A 0.000110181
4 *26:21 0.00492433
5 *26:17 0.00473383
6 *566:A zero 0
7 *566:A *56:17 0