*SPEF "ieee 1481-1999"
*DESIGN "gpio_control_block"
*DATE "11:11:11 Fri 11 11, 1111"
*VENDOR "OpenRCX"
*PROGRAM "Parallel Extraction"
*VERSION "1.0"
*DESIGN_FLOW "NAME_SCOPE LOCAL" "PIN_CAP NONE"
*DIVIDER /
*DELIMITER :
*BUS_DELIMITER []
*T_UNIT 1 NS
*C_UNIT 1 PF
*R_UNIT 1 OHM
*L_UNIT 1 HENRY

*NAME_MAP
*1 gpio_defaults[0]
*2 gpio_defaults[10]
*3 gpio_defaults[11]
*4 gpio_defaults[12]
*5 gpio_defaults[1]
*6 gpio_defaults[2]
*7 gpio_defaults[3]
*8 gpio_defaults[4]
*9 gpio_defaults[5]
*10 gpio_defaults[6]
*11 gpio_defaults[7]
*12 gpio_defaults[8]
*13 gpio_defaults[9]
*14 mgmt_gpio_in
*15 mgmt_gpio_oeb
*16 mgmt_gpio_out
*17 one
*18 pad_gpio_ana_en
*19 pad_gpio_ana_pol
*20 pad_gpio_ana_sel
*21 pad_gpio_dm[0]
*22 pad_gpio_dm[1]
*23 pad_gpio_dm[2]
*24 pad_gpio_holdover
*25 pad_gpio_ib_mode_sel
*26 pad_gpio_in
*27 pad_gpio_inenb
*28 pad_gpio_out
*29 pad_gpio_outenb
*30 pad_gpio_slow_sel
*31 pad_gpio_vtrip_sel
*32 resetn
*33 resetn_out
*34 serial_clock
*35 serial_clock_out
*36 serial_data_in
*37 serial_data_out
*38 serial_load
*39 serial_load_out
*40 user_gpio_in
*41 user_gpio_oeb
*42 user_gpio_out
*47 zero
*48 _000_
*49 _001_
*50 _002_
*51 _003_
*52 _004_
*53 _005_
*54 _006_
*55 _007_
*56 _008_
*57 _009_
*58 _010_
*59 _011_
*60 _012_
*61 _013_
*62 _014_
*63 _015_
*64 _016_
*65 _017_
*66 _018_
*67 _019_
*68 _020_
*69 _021_
*70 _022_
*71 _023_
*72 _024_
*73 _025_
*74 _026_
*75 _027_
*76 _042_
*77 _043_
*78 _044_
*79 _045_
*80 _046_
*81 _047_
*82 _048_
*83 _049_
*84 _050_
*85 _051_
*86 _052_
*87 _053_
*88 _054_
*89 _055_
*90 _056_
*91 _057_
*92 _058_
*93 _059_
*94 _060_
*95 _061_
*96 _062_
*97 _063_
*98 _064_
*99 _065_
*100 _066_
*101 _067_
*102 _068_
*103 _069_
*104 _070_
*105 _071_
*106 _072_
*107 _073_
*108 _074_
*109 _075_
*110 _076_
*111 _077_
*112 _078_
*113 _079_
*114 _080_
*115 _081_
*116 _082_
*117 _083_
*118 _084_
*119 clknet_0__068_
*120 clknet_0_serial_clock
*121 clknet_0_serial_load
*122 clknet_1_0__leaf__068_
*123 clknet_1_0__leaf_serial_clock
*124 clknet_1_0__leaf_serial_load
*125 clknet_1_1__leaf__068_
*126 clknet_1_1__leaf_serial_clock
*127 clknet_1_1__leaf_serial_load
*128 gpio_logic1
*129 gpio_outenb
*130 mgmt_ena
*131 net1
*132 net10
*133 net11
*134 net12
*135 net13
*136 net14
*137 net15
*138 net16
*139 net17
*140 net18
*141 net19
*142 net2
*143 net20
*144 net21
*145 net22
*146 net23
*147 net24
*148 net25
*149 net26
*150 net27
*151 net28
*152 net29
*153 net3
*154 net30
*155 net31
*156 net32
*157 net33
*158 net34
*159 net35
*160 net36
*161 net37
*162 net38
*163 net39
*164 net4
*165 net40
*166 net41
*167 net42
*168 net43
*169 net44
*170 net45
*171 net46
*172 net47
*173 net48
*174 net49
*175 net5
*176 net50
*177 net51
*178 net52
*179 net6
*180 net7
*181 net8
*182 net9
*183 shift_register\[0\]
*184 shift_register\[10\]
*185 shift_register\[11\]
*186 shift_register\[12\]
*187 shift_register\[1\]
*188 shift_register\[2\]
*189 shift_register\[3\]
*190 shift_register\[4\]
*191 shift_register\[5\]
*192 shift_register\[6\]
*193 shift_register\[7\]
*194 shift_register\[8\]
*195 shift_register\[9\]
*196 FILLER_0_26
*197 FILLER_0_31
*198 FILLER_0_38
*199 FILLER_0_45
*200 FILLER_0_52
*201 FILLER_0_57
*202 FILLER_0_64
*203 FILLER_0_71
*204 FILLER_0_80
*205 FILLER_0_86
*206 FILLER_0_90
*207 FILLER_10_26
*208 FILLER_10_29
*209 FILLER_10_3
*210 FILLER_10_52
*211 FILLER_10_82
*212 FILLER_10_85
*213 FILLER_10_92
*214 FILLER_11_3
*215 FILLER_11_30
*216 FILLER_11_54
*217 FILLER_11_57
*218 FILLER_11_85
*219 FILLER_11_9
*220 FILLER_11_92
*221 FILLER_12_26
*222 FILLER_12_29
*223 FILLER_12_3
*224 FILLER_12_39
*225 FILLER_12_67
*226 FILLER_12_79
*227 FILLER_12_83
*228 FILLER_12_85
*229 FILLER_12_92
*230 FILLER_13_12
*231 FILLER_13_3
*232 FILLER_13_46
*233 FILLER_13_54
*234 FILLER_13_57
*235 FILLER_13_67
*236 FILLER_13_7
*237 FILLER_13_92
*238 FILLER_14_26
*239 FILLER_14_29
*240 FILLER_14_3
*241 FILLER_14_33
*242 FILLER_14_42
*243 FILLER_14_46
*244 FILLER_14_67
*245 FILLER_14_77
*246 FILLER_14_83
*247 FILLER_14_85
*248 FILLER_14_91
*249 FILLER_15_12
*250 FILLER_15_24
*251 FILLER_15_3
*252 FILLER_15_54
*253 FILLER_15_57
*254 FILLER_15_66
*255 FILLER_15_90
*256 FILLER_16_12
*257 FILLER_16_24
*258 FILLER_16_29
*259 FILLER_16_3
*260 FILLER_16_51
*261 FILLER_16_81
*262 FILLER_16_85
*263 FILLER_16_92
*264 FILLER_17_13
*265 FILLER_17_3
*266 FILLER_17_43
*267 FILLER_17_54
*268 FILLER_17_57
*269 FILLER_17_7
*270 FILLER_17_85
*271 FILLER_17_92
*272 FILLER_18_14
*273 FILLER_18_26
*274 FILLER_18_29
*275 FILLER_18_3
*276 FILLER_18_45
*277 FILLER_18_69
*278 FILLER_18_77
*279 FILLER_18_82
*280 FILLER_18_85
*281 FILLER_18_91
*282 FILLER_19_3
*283 FILLER_19_30
*284 FILLER_19_54
*285 FILLER_19_57
*286 FILLER_19_79
*287 FILLER_19_9
*288 FILLER_19_91
*289 FILLER_1_26
*290 FILLER_1_31
*291 FILLER_1_38
*292 FILLER_1_45
*293 FILLER_1_52
*294 FILLER_1_59
*295 FILLER_1_66
*296 FILLER_1_78
*297 FILLER_1_80
*298 FILLER_1_85
*299 FILLER_1_92
*300 FILLER_20_26
*301 FILLER_20_29
*302 FILLER_20_3
*303 FILLER_20_34
*304 FILLER_20_64
*305 FILLER_20_70
*306 FILLER_20_79
*307 FILLER_20_83
*308 FILLER_20_85
*309 FILLER_20_92
*310 FILLER_21_13
*311 FILLER_21_3
*312 FILLER_21_43
*313 FILLER_21_47
*314 FILLER_21_54
*315 FILLER_21_57
*316 FILLER_21_81
*317 FILLER_21_85
*318 FILLER_21_92
*319 FILLER_22_26
*320 FILLER_22_29
*321 FILLER_22_3
*322 FILLER_22_40
*323 FILLER_22_72
*324 FILLER_22_76
*325 FILLER_22_81
*326 FILLER_22_85
*327 FILLER_22_91
*328 FILLER_23_14
*329 FILLER_23_3
*330 FILLER_23_44
*331 FILLER_23_53
*332 FILLER_23_57
*333 FILLER_23_61
*334 FILLER_23_88
*335 FILLER_24_26
*336 FILLER_24_29
*337 FILLER_24_3
*338 FILLER_24_43
*339 FILLER_24_67
*340 FILLER_24_79
*341 FILLER_24_83
*342 FILLER_24_85
*343 FILLER_24_92
*344 FILLER_25_17
*345 FILLER_25_26
*346 FILLER_25_3
*347 FILLER_25_38
*348 FILLER_25_50
*349 FILLER_25_57
*350 FILLER_25_61
*351 FILLER_25_8
*352 FILLER_25_82
*353 FILLER_25_92
*354 FILLER_26_10
*355 FILLER_26_18
*356 FILLER_26_26
*357 FILLER_26_29
*358 FILLER_26_3
*359 FILLER_26_41
*360 FILLER_26_54
*361 FILLER_26_57
*362 FILLER_26_61
*363 FILLER_26_82
*364 FILLER_26_85
*365 FILLER_26_91
*366 FILLER_2_26
*367 FILLER_2_31
*368 FILLER_2_38
*369 FILLER_2_45
*370 FILLER_2_52
*371 FILLER_2_57
*372 FILLER_2_64
*373 FILLER_2_76
*374 FILLER_2_80
*375 FILLER_2_84
*376 FILLER_2_91
*377 FILLER_3_26
*378 FILLER_3_31
*379 FILLER_3_38
*380 FILLER_3_42
*381 FILLER_3_46
*382 FILLER_3_53
*383 FILLER_3_60
*384 FILLER_3_67
*385 FILLER_3_73
*386 FILLER_3_77
*387 FILLER_3_80
*388 FILLER_3_92
*389 FILLER_4_26
*390 FILLER_4_31
*391 FILLER_4_38
*392 FILLER_4_45
*393 FILLER_4_52
*394 FILLER_4_57
*395 FILLER_4_66
*396 FILLER_4_73
*397 FILLER_4_80
*398 FILLER_4_92
*399 FILLER_5_26
*400 FILLER_5_38
*401 FILLER_5_45
*402 FILLER_5_52
*403 FILLER_5_59
*404 FILLER_5_66
*405 FILLER_5_72
*406 FILLER_5_76
*407 FILLER_5_80
*408 FILLER_5_92
*409 FILLER_6_26
*410 FILLER_6_31
*411 FILLER_6_35
*412 FILLER_6_45
*413 FILLER_6_52
*414 FILLER_6_58
*415 FILLER_6_65
*416 FILLER_6_72
*417 FILLER_6_84
*418 FILLER_6_92
*419 FILLER_7_26
*420 FILLER_7_30
*421 FILLER_7_34
*422 FILLER_7_41
*423 FILLER_7_53
*424 FILLER_7_65
*425 FILLER_7_74
*426 FILLER_7_78
*427 FILLER_7_80
*428 FILLER_7_86
*429 FILLER_7_91
*430 FILLER_8_12
*431 FILLER_8_16
*432 FILLER_8_23
*433 FILLER_8_27
*434 FILLER_8_29
*435 FILLER_8_3
*436 FILLER_8_51
*437 FILLER_8_55
*438 FILLER_8_57
*439 FILLER_8_63
*440 FILLER_8_8
*441 FILLER_8_82
*442 FILLER_8_85
*443 FILLER_8_91
*444 FILLER_9_17
*445 FILLER_9_25
*446 FILLER_9_3
*447 FILLER_9_46
*448 FILLER_9_54
*449 FILLER_9_57
*450 FILLER_9_61
*451 FILLER_9_88
*452 FILLER_9_9
*453 PHY_0
*454 PHY_1
*455 PHY_10
*456 PHY_11
*457 PHY_12
*458 PHY_13
*459 PHY_14
*460 PHY_15
*461 PHY_16
*462 PHY_17
*463 PHY_18
*464 PHY_19
*465 PHY_2
*466 PHY_20
*467 PHY_21
*468 PHY_22
*469 PHY_23
*470 PHY_24
*471 PHY_25
*472 PHY_26
*473 PHY_27
*474 PHY_28
*475 PHY_29
*476 PHY_3
*477 PHY_30
*478 PHY_31
*479 PHY_32
*480 PHY_33
*481 PHY_34
*482 PHY_35
*483 PHY_36
*484 PHY_37
*485 PHY_38
*486 PHY_39
*487 PHY_4
*488 PHY_40
*489 PHY_41
*490 PHY_42
*491 PHY_43
*492 PHY_44
*493 PHY_45
*494 PHY_46
*495 PHY_47
*496 PHY_48
*497 PHY_49
*498 PHY_5
*499 PHY_50
*500 PHY_51
*501 PHY_52
*502 PHY_53
*503 PHY_6
*504 PHY_7
*505 PHY_8
*506 PHY_9
*507 TAP_54
*508 TAP_55
*509 TAP_56
*510 TAP_57
*511 TAP_58
*512 TAP_59
*513 TAP_60
*514 TAP_61
*515 TAP_62
*516 TAP_63
*517 TAP_64
*518 TAP_65
*519 TAP_66
*520 TAP_67
*521 TAP_68
*522 TAP_69
*523 TAP_70
*524 TAP_71
*525 TAP_72
*526 TAP_73
*527 TAP_74
*528 TAP_75
*529 TAP_76
*530 TAP_77
*531 TAP_78
*532 TAP_79
*533 TAP_80
*534 TAP_81
*535 TAP_82
*536 TAP_83
*537 TAP_84
*538 TAP_85
*539 TAP_86
*540 TAP_87
*541 TAP_88
*542 TAP_89
*543 TAP_90
*544 TAP_91
*545 TAP_92
*546 TAP_93
*547 _085_
*548 _086_
*549 _087_
*550 _088_
*551 _089_
*552 _090_
*553 _091_
*554 _092_
*555 _093_
*556 _094_
*557 _095_
*558 _096_
*559 _097_
*560 _098_
*561 _099_
*562 _100_
*563 _101_
*564 _102_
*565 _103_
*566 _104_
*567 _105_
*568 _106__5
*569 _107_
*570 _108_
*571 _109_
*572 _110_
*573 _111_
*574 _112__6
*575 _113_
*576 _114_
*577 _115_
*578 _116__7
*579 _117_
*580 _118_
*581 _119_
*582 _120__8
*583 _121_
*584 _122_
*585 _123_
*586 _124__9
*587 _125_
*588 _126_
*589 _127_
*590 _128__10
*591 _129_
*592 _130_
*593 _131_
*594 _132__11
*595 _133_
*596 _134_
*597 _135_
*598 _136__12
*599 _137_
*600 _138_
*601 _139_
*602 _140__13
*603 _141_
*604 _142_
*605 _143_
*606 _144__14
*607 _145_
*608 _146_
*609 _147_
*610 _148__1
*611 _149_
*612 _150_
*613 _151_
*614 _152__2
*615 _153_
*616 _154_
*617 _155_
*618 _156__3
*619 _157_
*620 _158__4
*621 _159_
*622 _160_
*623 _161_
*624 _162_
*625 _163_
*626 _164_
*627 _165_
*628 _166_
*629 _167_
*630 _168_
*631 _169_
*632 _170_
*633 _171_
*634 _172_
*635 _173_
*636 _174_
*637 _175_
*638 _176_
*639 _177_
*640 _178_
*641 _179_
*642 _180_
*643 _181_
*644 _182_
*645 _183_
*646 _184_
*647 _185_
*648 _186_
*649 _187_
*650 _188_
*651 _189_
*652 clkbuf_0__068_
*653 clkbuf_0_serial_clock
*654 clkbuf_0_serial_load
*655 clkbuf_1_0__f__068_
*656 clkbuf_1_0__f_serial_clock
*657 clkbuf_1_0__f_serial_load
*658 clkbuf_1_1__f__068_
*659 clkbuf_1_1__f_serial_clock
*660 clkbuf_1_1__f_serial_load
*661 const_source
*662 fanout18
*663 fanout19
*664 gpio_in_buf
*665 gpio_logic_high
*666 hold1
*667 hold10
*668 hold11
*669 hold12
*670 hold13
*671 hold14
*672 hold15
*673 hold16
*674 hold17
*675 hold18
*676 hold19
*677 hold2
*678 hold3
*679 hold4
*680 hold5
*681 hold6
*682 hold7
*683 hold8
*684 hold9
*685 output1
*686 output10
*687 output11
*688 output12
*689 output13
*690 output14
*691 output15
*692 output16
*693 output17
*694 output2
*695 output3
*696 output4
*697 output5
*698 output6
*699 output7
*700 output8
*701 output9

*PORTS
gpio_defaults[0] I
gpio_defaults[10] I
gpio_defaults[11] I
gpio_defaults[12] I
gpio_defaults[1] I
gpio_defaults[2] I
gpio_defaults[3] I
gpio_defaults[4] I
gpio_defaults[5] I
gpio_defaults[6] I
gpio_defaults[7] I
gpio_defaults[8] I
gpio_defaults[9] I
mgmt_gpio_in O
mgmt_gpio_oeb I
mgmt_gpio_out I
one O
pad_gpio_ana_en O
pad_gpio_ana_pol O
pad_gpio_ana_sel O
pad_gpio_dm[0] O
pad_gpio_dm[1] O
pad_gpio_dm[2] O
pad_gpio_holdover O
pad_gpio_ib_mode_sel O
pad_gpio_in I
pad_gpio_inenb O
pad_gpio_out O
pad_gpio_outenb O
pad_gpio_slow_sel O
pad_gpio_vtrip_sel O
resetn I
resetn_out O
serial_clock I
serial_clock_out O
serial_data_in I
serial_data_out O
serial_load I
serial_load_out O
user_gpio_in O
user_gpio_oeb I
user_gpio_out I
zero O

*D_NET *1 0.00900348
*CONN
*P gpio_defaults[0] I
*I *565:B I *D sky130_fd_sc_hd__or2_1
*I *571:B I *D sky130_fd_sc_hd__nand2_1
*CAP
1 gpio_defaults[0] 0.000366325
2 *565:B 0.000340539
3 *571:B 0.00113523
4 *1:15 0.00379487
5 *1:13 0.00336651
6 *565:B *590:A 0
7 *565:B *101:7 0
8 *571:B *566:A 0
9 *571:B *568:A 0
10 *571:B *587:B 0
11 *571:B *136:19 0
12 *571:B *146:25 0
13 *571:B *147:17 0
14 *1:13 *5:8 0
15 *1:13 *137:8 0
16 *1:13 *174:12 0
17 *1:15 *51:12 0
18 *1:15 *137:8 0
19 *1:15 *174:12 0
20 *1:15 *176:10 0
21 *1:15 *177:13 0
*RES
1 gpio_defaults[0] *1:13 9.14286 
2 *1:13 *1:15 60.3839 
3 *1:15 *571:B 37.8 
4 *1:13 *565:B 20.9071 
*END

*D_NET *2 0.00273511
*CONN
*P gpio_defaults[10] I
*I *596:B I *D sky130_fd_sc_hd__or2_1
*I *674:A I *D sky130_fd_sc_hd__dlygate4sd3_1
*CAP
1 gpio_defaults[10] 0.000376649
2 *596:B 0.000795634
3 *674:A 0.000195273
4 *2:9 0.00136756
5 *596:B *623:SET_B 0
6 *596:B *624:D 0
7 *596:B *635:D 0
8 *596:B *650:A 0
9 *596:B *3:7 0
10 *596:B *76:16 0
11 *596:B *120:13 0
12 *596:B *127:8 0
13 *674:A *635:D 0
14 *674:A *183:12 0
15 *2:9 serial_data_out 0
16 *2:9 *635:D 0
17 *2:9 *692:A 0
18 *2:9 *3:7 0
19 *2:9 *13:7 0
*RES
1 gpio_defaults[10] *2:9 8.61607 
2 *2:9 *674:A 18.0232 
3 *2:9 *596:B 31.8446 
*END

*D_NET *3 0.00378192
*CONN
*P gpio_defaults[11] I
*I *600:B I *D sky130_fd_sc_hd__or2_1
*I *675:A I *D sky130_fd_sc_hd__dlygate4sd3_1
*CAP
1 gpio_defaults[11] 0.000804539
2 *600:B 0.000655431
3 *675:A 0.000430992
4 *3:7 0.00189096
5 *600:B *623:RESET_B 0
6 *600:B *627:RESET_B 0
7 *600:B *10:29 0
8 *675:A *624:D 0
9 *675:A *627:RESET_B 0
10 *675:A *10:29 0
11 *675:A *100:47 0
12 *675:A *129:17 0
13 *3:7 *624:D 0
14 *3:7 *624:SET_B 0
15 *3:7 *646:CLK 0
16 *3:7 *652:A 0
17 *3:7 *692:A 0
18 *3:7 *4:10 0
19 *3:7 *76:16 0
20 *3:7 *157:34 0
21 *596:B *3:7 0
22 *2:9 *3:7 0
*RES
1 gpio_defaults[11] *3:7 21.6868 
2 *3:7 *675:A 22.5765 
3 *3:7 *600:B 19.8399 
*END

*D_NET *4 0.00203659
*CONN
*P gpio_defaults[12] I
*I *673:A I *D sky130_fd_sc_hd__dlygate4sd3_1
*I *604:B I *D sky130_fd_sc_hd__or2_1
*CAP
1 gpio_defaults[12] 0.000746806
2 *673:A 6.28829e-05
3 *604:B 0.000208607
4 *4:10 0.0010183
5 *604:B *634:CLK 0
6 *604:B *672:A 0
7 *604:B *83:16 0
8 *673:A *634:CLK 0
9 *673:A *10:29 0
10 *673:A *11:36 0
11 *4:10 *634:CLK 0
12 *4:10 *50:41 0
13 *4:10 *83:16 0
14 *4:10 *157:34 0
15 *4:10 *173:20 0
16 *3:7 *4:10 0
*RES
1 gpio_defaults[12] *4:10 13.6604 
2 *4:10 *604:B 18.2018 
3 *4:10 *673:A 15.2911 
*END

*D_NET *5 0.00343804
*CONN
*P gpio_defaults[1] I
*I *592:B I *D sky130_fd_sc_hd__or2_1
*I *676:A I *D sky130_fd_sc_hd__dlygate4sd3_1
*CAP
1 gpio_defaults[1] 0.000333295
2 *592:B 0.00016043
3 *676:A 0.00122529
4 *5:8 0.00171902
5 *592:B *649:A 0
6 *676:A *636:D 0
7 *676:A *6:9 0
8 *676:A *7:9 0
9 *676:A *78:10 0
10 *676:A *100:59 0
11 *676:A *122:44 0
12 *676:A *195:9 0
13 *5:8 *649:A 0
14 *5:8 *6:9 0
15 *5:8 *137:7 0
16 *1:13 *5:8 0
*RES
1 gpio_defaults[1] *5:8 11.7679 
2 *5:8 *676:A 45.8893 
3 *5:8 *592:B 12.7107 
*END

*D_NET *6 0.00709542
*CONN
*P gpio_defaults[2] I
*I *572:B I *D sky130_fd_sc_hd__or2_1
*I *575:B I *D sky130_fd_sc_hd__nand2_1
*CAP
1 gpio_defaults[2] 0.00135299
2 *572:B 2.56688e-05
3 *575:B 9.22204e-05
4 *6:24 0.00216905
5 *6:9 0.00345549
6 *575:B *553:A 0
7 *575:B *126:19 0
8 *6:9 *588:B 0
9 *6:9 *636:D 0
10 *6:9 *637:D 0
11 *6:9 *7:9 0
12 *6:9 *100:59 0
13 *6:9 *137:8 0
14 *6:9 *152:12 0
15 *6:9 *187:10 0
16 *6:9 *188:8 0
17 *6:9 *195:9 0
18 *6:24 *585:A 0
19 *6:24 *591:B 0
20 *6:24 *638:CLK 0
21 *6:24 *638:D 0
22 *6:24 *650:A 0
23 *6:24 *690:A 0
24 *6:24 *691:A 0
25 *6:24 *35:18 0
26 *6:24 *78:10 0
27 *6:24 *93:25 0
28 *6:24 *122:10 0
29 *6:24 *125:17 0
30 *6:24 *136:19 0
31 *6:24 *139:17 0
32 *6:24 *147:20 0
33 *6:24 *150:17 0
34 *676:A *6:9 0
35 *5:8 *6:9 0
*RES
1 gpio_defaults[2] *6:9 30.7321 
2 *6:9 *6:24 47.9844 
3 *6:24 *575:B 19.3082 
4 *6:9 *572:B 14.3357 
*END

*D_NET *7 0.00905975
*CONN
*P gpio_defaults[3] I
*I *584:B I *D sky130_fd_sc_hd__or2_1
*I *587:B I *D sky130_fd_sc_hd__nand2_1
*CAP
1 gpio_defaults[3] 0.00111565
2 *584:B 4.53482e-05
3 *587:B 0.00108902
4 *7:17 0.00336888
5 *7:9 0.00344085
6 *584:B *100:54 0
7 *587:B *568:A 0
8 *587:B *607:B 0
9 *587:B *51:11 0
10 *7:9 *590:A 0
11 *7:9 *622:D 0
12 *7:9 *627:D 0
13 *7:9 *635:RESET_B 0
14 *7:9 *649:A 0
15 *7:9 *658:A 0
16 *7:9 *8:19 0
17 *7:9 *122:44 0
18 *7:17 *101:8 0
19 *7:17 *172:10 0
20 *571:B *587:B 0
21 *676:A *7:9 0
22 *6:9 *7:9 0
*RES
1 gpio_defaults[3] *7:9 25.4643 
2 *7:9 *7:17 49.9882 
3 *7:17 *587:B 45.7107 
4 *7:9 *584:B 14.7464 
*END

*D_NET *8 0.00347772
*CONN
*P gpio_defaults[4] I
*I *671:A I *D sky130_fd_sc_hd__dlygate4sd3_1
*I *588:B I *D sky130_fd_sc_hd__or2_1
*CAP
1 gpio_defaults[4] 0.00110763
2 *671:A 2.56688e-05
3 *588:B 0.000605556
4 *8:19 0.00173886
5 *588:B *637:D 0
6 *588:B *147:20 0
7 *588:B *188:8 0
8 *671:A *172:7 0
9 *8:19 *590:A 0
10 *8:19 *592:A 0
11 *8:19 *635:RESET_B 0
12 *8:19 *649:A 0
13 *8:19 *9:13 0
14 *8:19 *10:29 0
15 *8:19 *100:18 0
16 *8:19 *126:53 0
17 *8:19 *141:22 0
18 *8:19 *147:20 0
19 *8:19 *150:24 0
20 *8:19 *152:12 0
21 *6:9 *588:B 0
22 *7:9 *8:19 0
*RES
1 gpio_defaults[4] *8:19 26.4844 
2 *8:19 *588:B 27.5679 
3 *8:19 *671:A 14.3357 
*END

*D_NET *9 0.0122908
*CONN
*P gpio_defaults[5] I
*I *608:B I *D sky130_fd_sc_hd__or2_1
*I *611:B I *D sky130_fd_sc_hd__nand2_1
*CAP
1 gpio_defaults[5] 0.00167313
2 *608:B 7.90264e-05
3 *611:B 0.0012201
4 *9:28 0.00217651
5 *9:25 0.00317312
6 *9:13 0.00396887
7 *608:B *695:A 0
8 *608:B *180:14 0
9 *611:B pad_gpio_dm[1] 0
10 *611:B *623:SET_B 0
11 *611:B *632:D 0
12 *611:B *669:A 0
13 *611:B *33:19 0
14 *611:B *53:13 0
15 *611:B *140:11 0
16 *9:13 *580:A 0
17 *9:13 *600:A 0
18 *9:13 *647:D 0
19 *9:13 *689:A 0
20 *9:13 *10:29 0
21 *9:13 *27:14 0
22 *9:13 *31:21 0
23 *9:13 *130:15 0
24 *9:13 *132:32 0
25 *9:13 *186:10 0
26 *9:25 pad_gpio_out 0
27 *9:25 pad_gpio_slow_sel 0
28 *9:25 *653:A 0
29 *9:25 *11:51 0
30 *9:25 *48:25 0
31 *9:25 *54:32 0
32 *9:25 *56:27 0
33 *9:25 *77:18 0
34 *9:25 *88:42 0
35 *9:25 *132:32 0
36 *9:25 *173:20 0
37 *9:25 *179:17 0
38 *9:28 pad_gpio_ana_en 0
39 *9:28 pad_gpio_dm[1] 0
40 *9:28 pad_gpio_holdover 0
41 *9:28 *33:19 0
42 *8:19 *9:13 0
*RES
1 gpio_defaults[5] *9:13 48.2761 
2 *9:13 *9:25 48.1913 
3 *9:25 *9:28 3.18973 
4 *9:28 *611:B 31.2519 
5 *9:28 *608:B 19.0046 
*END

*D_NET *10 0.00829284
*CONN
*P gpio_defaults[6] I
*I *612:B I *D sky130_fd_sc_hd__or2_1
*I *615:B I *D sky130_fd_sc_hd__nand2_1
*CAP
1 gpio_defaults[6] 0.00262599
2 *612:B 0
3 *615:B 0.00117822
4 *10:31 0.00152044
5 *10:29 0.00296821
6 *615:B *612:A 0
7 *615:B *617:A 0
8 *615:B *629:RESET_B 0
9 *615:B *632:RESET_B 0
10 *615:B *40:25 0
11 *615:B *48:25 0
12 *615:B *84:21 0
13 *615:B *98:15 0
14 *615:B *180:14 0
15 *10:29 *551:B1 0
16 *10:29 *557:B 0
17 *10:29 *592:A 0
18 *10:29 *621:D 0
19 *10:29 *622:RESET_B 0
20 *10:29 *623:RESET_B 0
21 *10:29 *624:D 0
22 *10:29 *627:RESET_B 0
23 *10:29 *628:CLK_N 0
24 *10:29 *628:RESET_B 0
25 *10:29 *644:RESET_B 0
26 *10:29 *653:A 0
27 *10:29 *655:A 0
28 *10:29 *658:A 0
29 *10:29 *672:A 0
30 *10:29 *700:A 0
31 *10:29 *11:36 0
32 *10:29 *12:19 0
33 *10:29 *25:19 0
34 *10:29 *80:14 0
35 *10:29 *83:16 0
36 *10:29 *95:17 0
37 *10:29 *100:18 0
38 *10:29 *100:54 0
39 *10:29 *126:53 0
40 *10:29 *152:12 0
41 *10:29 *164:10 0
42 *10:31 *548:A 0
43 *10:31 *651:TE_B 0
44 *10:31 *164:10 0
45 *10:31 *180:14 0
46 *600:B *10:29 0
47 *673:A *10:29 0
48 *675:A *10:29 0
49 *8:19 *10:29 0
50 *9:13 *10:29 0
*RES
1 gpio_defaults[6] *10:29 45.9853 
2 *10:29 *10:31 7.86607 
3 *10:31 *615:B 49.1393 
4 *10:31 *612:B 13.8 
*END

*D_NET *11 0.0116
*CONN
*P gpio_defaults[7] I
*I *616:B I *D sky130_fd_sc_hd__or2_1
*I *619:B I *D sky130_fd_sc_hd__nand2_1
*CAP
1 gpio_defaults[7] 0.00301905
2 *616:B 0
3 *619:B 0.000541694
4 *11:51 0.00278093
5 *11:36 0.00525829
6 *619:B *633:SET_B 0
7 *619:B *662:A 0
8 *619:B *53:13 0
9 *619:B *62:25 0
10 *619:B *103:13 0
11 *619:B *103:25 0
12 *619:B *140:25 0
13 *11:36 pad_gpio_out 0
14 *11:36 pad_gpio_slow_sel 0
15 *11:36 *621:RESET_B 0
16 *11:36 *622:RESET_B 0
17 *11:36 *624:SET_B 0
18 *11:36 *627:RESET_B 0
19 *11:36 *630:RESET_B 0
20 *11:36 *634:CLK 0
21 *11:36 *12:9 0
22 *11:36 *12:19 0
23 *11:36 *25:19 0
24 *11:36 *56:27 0
25 *11:36 *63:27 0
26 *11:36 *80:14 0
27 *11:36 *95:17 0
28 *11:36 *130:15 0
29 *11:36 *150:24 0
30 *11:36 *179:17 0
31 *11:51 pad_gpio_ana_en 0
32 *11:51 pad_gpio_dm[2] 0
33 *11:51 *632:SET_B 0
34 *11:51 *633:SET_B 0
35 *11:51 *29:18 0
36 *11:51 *33:19 0
37 *11:51 *39:27 0
38 *11:51 *40:25 0
39 *11:51 *49:19 0
40 *11:51 *68:16 0
41 *11:51 *82:11 0
42 *11:51 *88:42 0
43 *11:51 *131:11 0
44 *11:51 *140:34 0
45 *11:51 *141:130 0
46 *673:A *11:36 0
47 *9:25 *11:51 0
48 *10:29 *11:36 0
*RES
1 gpio_defaults[7] *11:36 48.2167 
2 *11:36 *11:51 46.8507 
3 *11:51 *619:B 30.2286 
4 *11:51 *616:B 9.3 
*END

*D_NET *12 0.00558753
*CONN
*P gpio_defaults[8] I
*I *576:B I *D sky130_fd_sc_hd__or2_1
*I *579:B I *D sky130_fd_sc_hd__nand2_1
*CAP
1 gpio_defaults[8] 0.000514016
2 *576:B 0.000178826
3 *579:B 2.56688e-05
4 *12:19 0.00210092
5 *12:9 0.0027681
6 *576:B *621:D 0
7 *576:B *100:92 0
8 *579:B *60:10 0
9 *12:9 *621:D 0
10 *12:9 *13:7 0
11 *12:19 *623:D 0
12 *12:19 *626:SET_B 0
13 *12:19 *627:RESET_B 0
14 *12:19 *631:SET_B 0
15 *12:19 *650:A 0
16 *12:19 *39:27 0
17 *12:19 *55:13 0
18 *12:19 *60:10 0
19 *12:19 *100:47 0
20 *12:19 *100:92 0
21 *12:19 *104:44 0
22 *12:19 *125:22 0
23 *12:19 *129:17 0
24 *10:29 *12:19 0
25 *11:36 *12:9 0
26 *11:36 *12:19 0
*RES
1 gpio_defaults[8] *12:9 11.8036 
2 *12:9 *12:19 47.2857 
3 *12:19 *579:B 14.3357 
4 *12:9 *576:B 17.5321 
*END

*D_NET *13 0.00343511
*CONN
*P gpio_defaults[9] I
*I *580:B I *D sky130_fd_sc_hd__or2_1
*I *672:A I *D sky130_fd_sc_hd__dlygate4sd3_1
*CAP
1 gpio_defaults[9] 0.000403607
2 *580:B 0.000871821
3 *672:A 0.000442129
4 *13:7 0.00171756
5 *580:B *83:16 0
6 *580:B *130:15 0
7 *672:A *621:RESET_B 0
8 *672:A *634:CLK 0
9 *672:A *83:16 0
10 *672:A *130:15 0
11 *672:A *150:24 0
12 *672:A *173:20 0
13 *13:7 serial_data_out 0
14 *13:7 *621:D 0
15 *13:7 *635:D 0
16 *604:B *672:A 0
17 *2:9 *13:7 0
18 *10:29 *672:A 0
19 *12:9 *13:7 0
*RES
1 gpio_defaults[9] *13:7 12.5796 
2 *13:7 *672:A 23.3967 
3 *13:7 *580:B 23.021 
*END

*D_NET *14 0.00474015
*CONN
*P mgmt_gpio_in O
*I *651:Z O *D sky130_fd_sc_hd__ebufn_8
*CAP
1 mgmt_gpio_in 0.000335415
2 *651:Z 0.00203466
3 *14:17 0.00237008
4 mgmt_gpio_in one 0
5 mgmt_gpio_in pad_gpio_ana_pol 0
6 mgmt_gpio_in zero 0
7 mgmt_gpio_in *552:A 0
8 mgmt_gpio_in *15:35 0
9 mgmt_gpio_in *94:15 0
10 *14:17 pad_gpio_ana_pol 0
11 *14:17 pad_gpio_dm[1] 0
12 *14:17 pad_gpio_holdover 0
13 *14:17 *550:A 0
14 *14:17 *629:RESET_B 0
15 *14:17 *698:A 0
16 *14:17 *26:14 0
17 *14:17 *33:19 0
18 *14:17 *38:18 0
19 *14:17 *57:28 0
20 *14:17 *94:15 0
21 *14:17 *133:17 0
22 *14:17 *182:21 0
*RES
1 *651:Z *14:17 47.7774 
2 *14:17 mgmt_gpio_in 14.3905 
*END

*D_NET *15 0.0101704
*CONN
*P mgmt_gpio_oeb I
*I *557:B I *D sky130_fd_sc_hd__nand3_1
*I *550:B I *D sky130_fd_sc_hd__and3_1
*I *552:A I *D sky130_fd_sc_hd__nand2_1
*CAP
1 mgmt_gpio_oeb 5.62367e-05
2 *557:B 0.000339626
3 *550:B 6.45626e-05
4 *552:A 0.0024189
5 *15:38 0.00143194
6 *15:35 0.00220587
7 *15:7 0.00365327
8 *550:B *141:130 0
9 *552:A one 0
10 *552:A pad_gpio_ana_pol 0
11 *552:A zero 0
12 *552:A *552:B 0
13 *552:A *610:A 0
14 *552:A *629:SET_B 0
15 *552:A *39:27 0
16 *552:A *93:25 0
17 *552:A *151:21 0
18 *557:B *557:A 0
19 *557:B *141:130 0
20 *15:35 pad_gpio_ana_pol 0
21 *15:35 *622:RESET_B 0
22 *15:35 *27:24 0
23 *15:35 *52:14 0
24 *15:35 *57:28 0
25 *15:35 *63:27 0
26 *15:35 *80:34 0
27 *15:38 pad_gpio_inenb 0
28 *15:38 pad_gpio_out 0
29 *15:38 *557:A 0
30 *15:38 *622:RESET_B 0
31 *15:38 *26:14 0
32 *15:38 *38:18 0
33 *15:38 *48:11 0
34 mgmt_gpio_in *552:A 0
35 mgmt_gpio_in *15:35 0
36 *10:29 *557:B 0
*RES
1 mgmt_gpio_oeb *15:7 3.61367 
2 *15:7 *552:A 33.5497 
3 *15:7 *15:35 47.8029 
4 *15:35 *15:38 7.1324 
5 *15:38 *550:B 15.2196 
6 *15:38 *557:B 21.1661 
*END

*D_NET *16 0.00550862
*CONN
*P mgmt_gpio_out I
*I *558:A I *D sky130_fd_sc_hd__inv_2
*CAP
1 mgmt_gpio_out 0.00275431
2 *558:A 0
3 *16:23 0.00275431
4 *16:23 one 0
5 *16:23 zero 0
6 *16:23 *35:18 0
7 *16:23 *42:46 0
8 *16:23 *57:14 0
9 *16:23 *63:14 0
10 *16:23 *68:16 0
11 *16:23 *69:18 0
12 *16:23 *88:28 0
13 *16:23 *146:25 0
14 *16:23 *173:36 0
*RES
1 mgmt_gpio_out *16:23 45.3536 
2 *16:23 *558:A 9.3 
*END

*D_NET *17 0.00380773
*CONN
*P one O
*I *661:HI O *D sky130_fd_sc_hd__conb_1
*CAP
1 one 0.00190387
2 *661:HI 0.00190387
3 one pad_gpio_ana_sel 0
4 one zero 0
5 one *39:27 0
6 one *50:15 0
7 one *54:32 0
8 one *80:34 0
9 one *132:11 0
10 one *173:36 0
11 mgmt_gpio_in one 0
12 *552:A one 0
13 *16:23 one 0
*RES
1 *661:HI one 46.5721 
*END

*D_NET *18 0.00352685
*CONN
*P pad_gpio_ana_en O
*I *685:X O *D sky130_fd_sc_hd__buf_2
*CAP
1 pad_gpio_ana_en 0.00176343
2 *685:X 0.00176343
3 pad_gpio_ana_en pad_gpio_dm[1] 0
4 pad_gpio_ana_en pad_gpio_holdover 0
5 pad_gpio_ana_en *560:B 0
6 pad_gpio_ana_en *581:A 0
7 pad_gpio_ana_en *32:37 0
8 pad_gpio_ana_en *33:19 0
9 pad_gpio_ana_en *54:25 0
10 pad_gpio_ana_en *68:16 0
11 pad_gpio_ana_en *83:52 0
12 pad_gpio_ana_en *131:11 0
13 *9:28 pad_gpio_ana_en 0
14 *11:51 pad_gpio_ana_en 0
*RES
1 *685:X pad_gpio_ana_en 43.7679 
*END

*D_NET *19 0.00332344
*CONN
*P pad_gpio_ana_pol O
*I *694:X O *D sky130_fd_sc_hd__buf_2
*CAP
1 pad_gpio_ana_pol 0.00166172
2 *694:X 0.00166172
3 pad_gpio_ana_pol pad_gpio_ana_sel 0
4 pad_gpio_ana_pol zero 0
5 pad_gpio_ana_pol *581:A 0
6 pad_gpio_ana_pol *32:37 0
7 pad_gpio_ana_pol *62:25 0
8 pad_gpio_ana_pol *62:40 0
9 pad_gpio_ana_pol *93:25 0
10 pad_gpio_ana_pol *179:29 0
11 mgmt_gpio_in pad_gpio_ana_pol 0
12 *552:A pad_gpio_ana_pol 0
13 *14:17 pad_gpio_ana_pol 0
14 *15:35 pad_gpio_ana_pol 0
*RES
1 *694:X pad_gpio_ana_pol 38.0415 
*END

*D_NET *20 0.00371404
*CONN
*P pad_gpio_ana_sel O
*I *695:X O *D sky130_fd_sc_hd__buf_2
*CAP
1 pad_gpio_ana_sel 0.00185702
2 *695:X 0.00185702
3 pad_gpio_ana_sel pad_gpio_dm[0] 0
4 pad_gpio_ana_sel pad_gpio_holdover 0
5 pad_gpio_ana_sel *581:A 0
6 pad_gpio_ana_sel *662:A 0
7 pad_gpio_ana_sel *54:32 0
8 pad_gpio_ana_sel *154:11 0
9 pad_gpio_ana_sel *173:27 0
10 one pad_gpio_ana_sel 0
11 pad_gpio_ana_pol pad_gpio_ana_sel 0
*RES
1 *695:X pad_gpio_ana_sel 45.8929 
*END

*D_NET *21 0.00376777
*CONN
*P pad_gpio_dm[0] O
*I *696:X O *D sky130_fd_sc_hd__buf_2
*CAP
1 pad_gpio_dm[0] 0.00188388
2 *696:X 0.00188388
3 pad_gpio_dm[0] zero 0
4 pad_gpio_dm[0] *662:A 0
5 pad_gpio_dm[0] *695:A 0
6 pad_gpio_dm[0] *29:18 0
7 pad_gpio_dm[0] *48:25 0
8 pad_gpio_dm[0] *88:28 0
9 pad_gpio_dm[0] *88:42 0
10 pad_gpio_dm[0] *132:14 0
11 pad_gpio_dm[0] *157:11 0
12 pad_gpio_dm[0] *179:29 0
13 pad_gpio_ana_sel pad_gpio_dm[0] 0
*RES
1 *696:X pad_gpio_dm[0] 46.5001 
*END

*D_NET *22 0.00432798
*CONN
*P pad_gpio_dm[1] O
*I *697:X O *D sky130_fd_sc_hd__buf_2
*CAP
1 pad_gpio_dm[1] 0.00216399
2 *697:X 0.00216399
3 pad_gpio_dm[1] pad_gpio_holdover 0
4 pad_gpio_dm[1] *631:CLK_N 0
5 pad_gpio_dm[1] *662:A 0
6 pad_gpio_dm[1] *29:18 0
7 pad_gpio_dm[1] *32:37 0
8 pad_gpio_dm[1] *65:22 0
9 pad_gpio_dm[1] *94:15 0
10 pad_gpio_ana_en pad_gpio_dm[1] 0
11 *611:B pad_gpio_dm[1] 0
12 *9:28 pad_gpio_dm[1] 0
13 *14:17 pad_gpio_dm[1] 0
*RES
1 *697:X pad_gpio_dm[1] 38.7737 
*END

*D_NET *23 0.00369921
*CONN
*P pad_gpio_dm[2] O
*I *698:X O *D sky130_fd_sc_hd__buf_2
*CAP
1 pad_gpio_dm[2] 0.0018496
2 *698:X 0.0018496
3 pad_gpio_dm[2] pad_gpio_holdover 0
4 pad_gpio_dm[2] *629:SET_B 0
5 pad_gpio_dm[2] *657:A 0
6 pad_gpio_dm[2] *698:A 0
7 pad_gpio_dm[2] *26:14 0
8 pad_gpio_dm[2] *29:18 0
9 pad_gpio_dm[2] *94:15 0
10 pad_gpio_dm[2] *182:8 0
11 *11:51 pad_gpio_dm[2] 0
*RES
1 *698:X pad_gpio_dm[2] 28.8282 
*END

*D_NET *24 0.00337954
*CONN
*P pad_gpio_holdover O
*I *699:X O *D sky130_fd_sc_hd__buf_2
*CAP
1 pad_gpio_holdover 0.00168977
2 *699:X 0.00168977
3 pad_gpio_holdover pad_gpio_ib_mode_sel 0
4 pad_gpio_holdover *695:A 0
5 pad_gpio_holdover *26:14 0
6 pad_gpio_holdover *33:19 0
7 pad_gpio_holdover *164:10 0
8 pad_gpio_holdover *173:27 0
9 pad_gpio_ana_en pad_gpio_holdover 0
10 pad_gpio_ana_sel pad_gpio_holdover 0
11 pad_gpio_dm[1] pad_gpio_holdover 0
12 pad_gpio_dm[2] pad_gpio_holdover 0
13 *9:28 pad_gpio_holdover 0
14 *14:17 pad_gpio_holdover 0
*RES
1 *699:X pad_gpio_holdover 41.715 
*END

*D_NET *25 0.00447205
*CONN
*P pad_gpio_ib_mode_sel O
*I *700:X O *D sky130_fd_sc_hd__buf_2
*CAP
1 pad_gpio_ib_mode_sel 9.51698e-05
2 *700:X 0.00214086
3 *25:19 0.00223602
4 pad_gpio_ib_mode_sel *26:14 0
5 pad_gpio_ib_mode_sel *38:18 0
6 pad_gpio_ib_mode_sel *57:28 0
7 *25:19 pad_gpio_out 0
8 *25:19 pad_gpio_slow_sel 0
9 *25:19 *622:RESET_B 0
10 *25:19 *29:18 0
11 *25:19 *32:37 0
12 *25:19 *50:27 0
13 *25:19 *54:32 0
14 *25:19 *63:27 0
15 *25:19 *76:26 0
16 *25:19 *80:25 0
17 *25:19 *88:42 0
18 *25:19 *95:17 0
19 *25:19 *146:56 0
20 *25:19 *154:19 0
21 pad_gpio_holdover pad_gpio_ib_mode_sel 0
22 *10:29 *25:19 0
23 *11:36 *25:19 0
*RES
1 *700:X *25:19 46.1252 
2 *25:19 pad_gpio_ib_mode_sel 8.99759 
*END

*D_NET *26 0.00531693
*CONN
*P pad_gpio_in I
*I *651:A I *D sky130_fd_sc_hd__ebufn_8
*I *563:A I *D sky130_fd_sc_hd__inv_2
*CAP
1 pad_gpio_in 0.00125355
2 *651:A 6.50276e-05
3 *563:A 0.00133989
4 *26:14 0.00265847
5 *563:A *49:19 0
6 *563:A *69:18 0
7 *563:A *85:13 0
8 *563:A *130:31 0
9 *563:A *141:130 0
10 *26:14 pad_gpio_inenb 0
11 *26:14 *698:A 0
12 *26:14 *38:18 0
13 *26:14 *57:28 0
14 *26:14 *130:31 0
15 *26:14 *141:130 0
16 *26:14 *173:27 0
17 pad_gpio_dm[2] *26:14 0
18 pad_gpio_holdover *26:14 0
19 pad_gpio_ib_mode_sel *26:14 0
20 *14:17 *26:14 0
21 *15:38 *26:14 0
*RES
1 pad_gpio_in *26:14 19.9654 
2 *26:14 *563:A 44.1214 
3 *26:14 *651:A 15.1571 
*END

*D_NET *27 0.00440363
*CONN
*P pad_gpio_inenb O
*I *701:X O *D sky130_fd_sc_hd__buf_2
*CAP
1 pad_gpio_inenb 5.62367e-05
2 *701:X 0.000517044
3 *27:24 0.00168477
4 *27:14 0.00214558
5 pad_gpio_inenb pad_gpio_out 0
6 *27:14 *630:SET_B 0
7 *27:14 *76:16 0
8 *27:14 *173:20 0
9 *27:24 *41:20 0
10 *27:24 *50:41 0
11 *27:24 *57:28 0
12 *27:24 *63:27 0
13 *27:24 *69:47 0
14 *27:24 *77:18 0
15 *27:24 *77:25 0
16 *27:24 *83:19 0
17 *27:24 *132:32 0
18 *9:13 *27:14 0
19 *15:35 *27:24 0
20 *15:38 pad_gpio_inenb 0
21 *26:14 pad_gpio_inenb 0
*RES
1 *701:X *27:14 32.8162 
2 *27:14 *27:24 48.6518 
3 *27:24 pad_gpio_inenb 3.61367 
*END

*D_NET *28 0.00334363
*CONN
*P pad_gpio_out O
*I *686:X O *D sky130_fd_sc_hd__buf_2
*CAP
1 pad_gpio_out 0.00167181
2 *686:X 0.00167181
3 pad_gpio_out pad_gpio_slow_sel 0
4 pad_gpio_out *622:RESET_B 0
5 pad_gpio_out *627:RESET_B 0
6 pad_gpio_out *653:A 0
7 pad_gpio_out *54:32 0
8 pad_gpio_out *56:27 0
9 pad_gpio_out *76:16 0
10 pad_gpio_out *76:26 0