*SPEF "ieee 1481-1999"
*DESIGN "gpio_control_block"
*DATE "11:11:11 Fri 11 11, 1111"
*VENDOR "OpenRCX"
*PROGRAM "Parallel Extraction"
*VERSION "1.0"
*DESIGN_FLOW "NAME_SCOPE LOCAL" "PIN_CAP NONE"
*DIVIDER /
*DELIMITER :
*BUS_DELIMITER []
*T_UNIT 1 NS
*C_UNIT 1 PF
*R_UNIT 1 OHM
*L_UNIT 1 HENRY

*NAME_MAP
*1 gpio_defaults[0]
*2 gpio_defaults[10]
*3 gpio_defaults[11]
*4 gpio_defaults[12]
*5 gpio_defaults[1]
*6 gpio_defaults[2]
*7 gpio_defaults[3]
*8 gpio_defaults[4]
*9 gpio_defaults[5]
*10 gpio_defaults[6]
*11 gpio_defaults[7]
*12 gpio_defaults[8]
*13 gpio_defaults[9]
*14 mgmt_gpio_in
*15 mgmt_gpio_oeb
*16 mgmt_gpio_out
*17 one
*18 pad_gpio_ana_en
*19 pad_gpio_ana_pol
*20 pad_gpio_ana_sel
*21 pad_gpio_dm[0]
*22 pad_gpio_dm[1]
*23 pad_gpio_dm[2]
*24 pad_gpio_holdover
*25 pad_gpio_ib_mode_sel
*26 pad_gpio_in
*27 pad_gpio_inenb
*28 pad_gpio_out
*29 pad_gpio_outenb
*30 pad_gpio_slow_sel
*31 pad_gpio_vtrip_sel
*32 resetn
*33 resetn_out
*34 serial_clock
*35 serial_clock_out
*36 serial_data_in
*37 serial_data_out
*38 serial_load
*39 serial_load_out
*40 user_gpio_in
*41 user_gpio_oeb
*42 user_gpio_out
*47 zero
*48 _000_
*49 _001_
*50 _002_
*51 _003_
*52 _004_
*53 _005_
*54 _006_
*55 _007_
*56 _008_
*57 _009_
*58 _010_
*59 _011_
*60 _012_
*61 _013_
*62 _014_
*63 _015_
*64 _016_
*65 _017_
*66 _018_
*67 _019_
*68 _020_
*69 _021_
*70 _022_
*71 _023_
*72 _024_
*73 _025_
*74 _026_
*75 _027_
*76 _042_
*77 _043_
*78 _044_
*79 _045_
*80 _046_
*81 _047_
*82 _048_
*83 _049_
*84 _050_
*85 _051_
*86 _052_
*87 _053_
*88 _054_
*89 _055_
*90 _056_
*91 _057_
*92 _058_
*93 _059_
*94 _060_
*95 _061_
*96 _062_
*97 _063_
*98 _064_
*99 _065_
*100 _066_
*101 _067_
*102 _068_
*103 _069_
*104 _070_
*105 _071_
*106 _072_
*107 _073_
*108 _074_
*109 _075_
*110 _076_
*111 _077_
*112 _078_
*113 _079_
*114 _080_
*115 _081_
*116 _082_
*117 _083_
*118 _084_
*119 clknet_0__068_
*120 clknet_0_serial_clock
*121 clknet_0_serial_load
*122 clknet_1_0__leaf__068_
*123 clknet_1_0__leaf_serial_clock
*124 clknet_1_0__leaf_serial_load
*125 clknet_1_1__leaf__068_
*126 clknet_1_1__leaf_serial_clock
*127 clknet_1_1__leaf_serial_load
*128 gpio_logic1
*129 gpio_outenb
*130 mgmt_ena
*131 net1
*132 net10
*133 net11
*134 net12
*135 net13
*136 net14
*137 net15
*138 net16
*139 net17
*140 net18
*141 net19
*142 net2
*143 net20
*144 net21
*145 net22
*146 net23
*147 net24
*148 net25
*149 net26
*150 net27
*151 net28
*152 net29
*153 net3
*154 net30
*155 net31
*156 net32
*157 net33
*158 net34
*159 net35
*160 net36
*161 net37
*162 net38
*163 net39
*164 net4
*165 net40
*166 net41
*167 net42
*168 net43
*169 net44
*170 net45
*171 net46
*172 net47
*173 net48
*174 net49
*175 net5
*176 net50
*177 net51
*178 net52
*179 net6
*180 net7
*181 net8
*182 net9
*183 shift_register\[0\]
*184 shift_register\[10\]
*185 shift_register\[11\]
*186 shift_register\[12\]
*187 shift_register\[1\]
*188 shift_register\[2\]
*189 shift_register\[3\]
*190 shift_register\[4\]
*191 shift_register\[5\]
*192 shift_register\[6\]
*193 shift_register\[7\]
*194 shift_register\[8\]
*195 shift_register\[9\]
*196 FILLER_0_26
*197 FILLER_0_31
*198 FILLER_0_38
*199 FILLER_0_45
*200 FILLER_0_52
*201 FILLER_0_57
*202 FILLER_0_64
*203 FILLER_0_71
*204 FILLER_0_80
*205 FILLER_0_92
*206 FILLER_10_26
*207 FILLER_10_29
*208 FILLER_10_3
*209 FILLER_10_52
*210 FILLER_10_82
*211 FILLER_10_85
*212 FILLER_10_92
*213 FILLER_11_3
*214 FILLER_11_30
*215 FILLER_11_54
*216 FILLER_11_57
*217 FILLER_11_85
*218 FILLER_11_9
*219 FILLER_11_92
*220 FILLER_12_26
*221 FILLER_12_29
*222 FILLER_12_3
*223 FILLER_12_39
*224 FILLER_12_67
*225 FILLER_12_79
*226 FILLER_12_83
*227 FILLER_12_85
*228 FILLER_12_92
*229 FILLER_13_16
*230 FILLER_13_3
*231 FILLER_13_46
*232 FILLER_13_54
*233 FILLER_13_57
*234 FILLER_13_67
*235 FILLER_13_7
*236 FILLER_13_92
*237 FILLER_14_26
*238 FILLER_14_29
*239 FILLER_14_3
*240 FILLER_14_33
*241 FILLER_14_42
*242 FILLER_14_46
*243 FILLER_14_67
*244 FILLER_14_77
*245 FILLER_14_83
*246 FILLER_14_85
*247 FILLER_14_91
*248 FILLER_15_24
*249 FILLER_15_3
*250 FILLER_15_54
*251 FILLER_15_57
*252 FILLER_15_66
*253 FILLER_15_90
*254 FILLER_16_14
*255 FILLER_16_26
*256 FILLER_16_29
*257 FILLER_16_3
*258 FILLER_16_51
*259 FILLER_16_81
*260 FILLER_16_85
*261 FILLER_16_92
*262 FILLER_17_10
*263 FILLER_17_16
*264 FILLER_17_3
*265 FILLER_17_43
*266 FILLER_17_54
*267 FILLER_17_57
*268 FILLER_17_85
*269 FILLER_17_92
*270 FILLER_18_14
*271 FILLER_18_26
*272 FILLER_18_29
*273 FILLER_18_3
*274 FILLER_18_35
*275 FILLER_18_44
*276 FILLER_18_48
*277 FILLER_18_69
*278 FILLER_18_78
*279 FILLER_18_85
*280 FILLER_18_91
*281 FILLER_19_3
*282 FILLER_19_30
*283 FILLER_19_54
*284 FILLER_19_57
*285 FILLER_19_79
*286 FILLER_19_9
*287 FILLER_19_91
*288 FILLER_1_26
*289 FILLER_1_31
*290 FILLER_1_38
*291 FILLER_1_45
*292 FILLER_1_52
*293 FILLER_1_59
*294 FILLER_1_66
*295 FILLER_1_73
*296 FILLER_1_80
*297 FILLER_1_85
*298 FILLER_1_92
*299 FILLER_20_26
*300 FILLER_20_29
*301 FILLER_20_3
*302 FILLER_20_34
*303 FILLER_20_64
*304 FILLER_20_70
*305 FILLER_20_79
*306 FILLER_20_83
*307 FILLER_20_85
*308 FILLER_20_92
*309 FILLER_21_14
*310 FILLER_21_3
*311 FILLER_21_44
*312 FILLER_21_54
*313 FILLER_21_57
*314 FILLER_21_81
*315 FILLER_21_85
*316 FILLER_21_92
*317 FILLER_22_26
*318 FILLER_22_29
*319 FILLER_22_3
*320 FILLER_22_40
*321 FILLER_22_72
*322 FILLER_22_76
*323 FILLER_22_81
*324 FILLER_22_85
*325 FILLER_22_91
*326 FILLER_23_14
*327 FILLER_23_3
*328 FILLER_23_44
*329 FILLER_23_48
*330 FILLER_23_54
*331 FILLER_23_57
*332 FILLER_23_61
*333 FILLER_23_88
*334 FILLER_24_26
*335 FILLER_24_29
*336 FILLER_24_3
*337 FILLER_24_34
*338 FILLER_24_43
*339 FILLER_24_67
*340 FILLER_24_81
*341 FILLER_24_85
*342 FILLER_24_92
*343 FILLER_25_11
*344 FILLER_25_15
*345 FILLER_25_21
*346 FILLER_25_3
*347 FILLER_25_30
*348 FILLER_25_42
*349 FILLER_25_54
*350 FILLER_25_57
*351 FILLER_25_61
*352 FILLER_25_82
*353 FILLER_25_86
*354 FILLER_25_91
*355 FILLER_26_10
*356 FILLER_26_18
*357 FILLER_26_26
*358 FILLER_26_29
*359 FILLER_26_3
*360 FILLER_26_46
*361 FILLER_26_54
*362 FILLER_26_57
*363 FILLER_26_61
*364 FILLER_26_82
*365 FILLER_26_85
*366 FILLER_26_91
*367 FILLER_2_26
*368 FILLER_2_31
*369 FILLER_2_39
*370 FILLER_2_44
*371 FILLER_2_50
*372 FILLER_2_52
*373 FILLER_2_57
*374 FILLER_2_64
*375 FILLER_2_71
*376 FILLER_2_79
*377 FILLER_2_85
*378 FILLER_2_92
*379 FILLER_3_26
*380 FILLER_3_37
*381 FILLER_3_44
*382 FILLER_3_51
*383 FILLER_3_58
*384 FILLER_3_69
*385 FILLER_3_76
*386 FILLER_3_80
*387 FILLER_3_85
*388 FILLER_3_92
*389 FILLER_4_26
*390 FILLER_4_31
*391 FILLER_4_38
*392 FILLER_4_42
*393 FILLER_4_46
*394 FILLER_4_50
*395 FILLER_4_52
*396 FILLER_4_57
*397 FILLER_4_65
*398 FILLER_4_69
*399 FILLER_4_77
*400 FILLER_4_82
*401 FILLER_4_92
*402 FILLER_5_26
*403 FILLER_5_38
*404 FILLER_5_45
*405 FILLER_5_52
*406 FILLER_5_59
*407 FILLER_5_63
*408 FILLER_5_67
*409 FILLER_5_74
*410 FILLER_5_78
*411 FILLER_5_80
*412 FILLER_5_92
*413 FILLER_6_26
*414 FILLER_6_31
*415 FILLER_6_42
*416 FILLER_6_49
*417 FILLER_6_52
*418 FILLER_6_58
*419 FILLER_6_65
*420 FILLER_6_72
*421 FILLER_6_80
*422 FILLER_6_84
*423 FILLER_6_92
*424 FILLER_7_26
*425 FILLER_7_32
*426 FILLER_7_36
*427 FILLER_7_44
*428 FILLER_7_54
*429 FILLER_7_58
*430 FILLER_7_64
*431 FILLER_7_71
*432 FILLER_7_80
*433 FILLER_7_86
*434 FILLER_7_91
*435 FILLER_8_12
*436 FILLER_8_20
*437 FILLER_8_29
*438 FILLER_8_3
*439 FILLER_8_51
*440 FILLER_8_55
*441 FILLER_8_57
*442 FILLER_8_67
*443 FILLER_8_7
*444 FILLER_8_75
*445 FILLER_8_82
*446 FILLER_8_85
*447 FILLER_8_91
*448 FILLER_9_16
*449 FILLER_9_24
*450 FILLER_9_3
*451 FILLER_9_45
*452 FILLER_9_49
*453 FILLER_9_54
*454 FILLER_9_57
*455 FILLER_9_7
*456 FILLER_9_87
*457 FILLER_9_93
*458 PHY_0
*459 PHY_1
*460 PHY_10
*461 PHY_11
*462 PHY_12
*463 PHY_13
*464 PHY_14
*465 PHY_15
*466 PHY_16
*467 PHY_17
*468 PHY_18
*469 PHY_19
*470 PHY_2
*471 PHY_20
*472 PHY_21
*473 PHY_22
*474 PHY_23
*475 PHY_24
*476 PHY_25
*477 PHY_26
*478 PHY_27
*479 PHY_28
*480 PHY_29
*481 PHY_3
*482 PHY_30
*483 PHY_31
*484 PHY_32
*485 PHY_33
*486 PHY_34
*487 PHY_35
*488 PHY_36
*489 PHY_37
*490 PHY_38
*491 PHY_39
*492 PHY_4
*493 PHY_40
*494 PHY_41
*495 PHY_42
*496 PHY_43
*497 PHY_44
*498 PHY_45
*499 PHY_46
*500 PHY_47
*501 PHY_48
*502 PHY_49
*503 PHY_5
*504 PHY_50
*505 PHY_51
*506 PHY_52
*507 PHY_53
*508 PHY_6
*509 PHY_7
*510 PHY_8
*511 PHY_9
*512 TAP_54
*513 TAP_55
*514 TAP_56
*515 TAP_57
*516 TAP_58
*517 TAP_59
*518 TAP_60
*519 TAP_61
*520 TAP_62
*521 TAP_63
*522 TAP_64
*523 TAP_65
*524 TAP_66
*525 TAP_67
*526 TAP_68
*527 TAP_69
*528 TAP_70
*529 TAP_71
*530 TAP_72
*531 TAP_73
*532 TAP_74
*533 TAP_75
*534 TAP_76
*535 TAP_77
*536 TAP_78
*537 TAP_79
*538 TAP_80
*539 TAP_81
*540 TAP_82
*541 TAP_83
*542 TAP_84
*543 TAP_85
*544 TAP_86
*545 TAP_87
*546 TAP_88
*547 TAP_89
*548 TAP_90
*549 TAP_91
*550 TAP_92
*551 TAP_93
*552 _085_
*553 _086_
*554 _087_
*555 _088_
*556 _089_
*557 _090_
*558 _091_
*559 _092_
*560 _093_
*561 _094_
*562 _095_
*563 _096_
*564 _097_
*565 _098_
*566 _099_
*567 _100_
*568 _101_
*569 _102_
*570 _103_
*571 _104_
*572 _105_
*573 _106__5
*574 _107_
*575 _108_
*576 _109_
*577 _110_
*578 _111_
*579 _112__6
*580 _113_
*581 _114_
*582 _115_
*583 _116__7
*584 _117_
*585 _118_
*586 _119_
*587 _120__8
*588 _121_
*589 _122_
*590 _123_
*591 _124__9
*592 _125_
*593 _126_
*594 _127_
*595 _128__10
*596 _129_
*597 _130_
*598 _131_
*599 _132__11
*600 _133_
*601 _134_
*602 _135_
*603 _136__12
*604 _137_
*605 _138_
*606 _139_
*607 _140__13
*608 _141_
*609 _142_
*610 _143_
*611 _144__14
*612 _145_
*613 _146_
*614 _147_
*615 _148__1
*616 _149_
*617 _150_
*618 _151_
*619 _152__2
*620 _153_
*621 _154_
*622 _155_
*623 _156__3
*624 _157_
*625 _158__4
*626 _159_
*627 _160_
*628 _161_
*629 _162_
*630 _163_
*631 _164_
*632 _165_
*633 _166_
*634 _167_
*635 _168_
*636 _169_
*637 _170_
*638 _171_
*639 _172_
*640 _173_
*641 _174_
*642 _175_
*643 _176_
*644 _177_
*645 _178_
*646 _179_
*647 _180_
*648 _181_
*649 _182_
*650 _183_
*651 _184_
*652 _185_
*653 _186_
*654 _187_
*655 _188_
*656 _189_
*657 clkbuf_0__068_
*658 clkbuf_0_serial_clock
*659 clkbuf_0_serial_load
*660 clkbuf_1_0__f__068_
*661 clkbuf_1_0__f_serial_clock
*662 clkbuf_1_0__f_serial_load
*663 clkbuf_1_1__f__068_
*664 clkbuf_1_1__f_serial_clock
*665 clkbuf_1_1__f_serial_load
*666 const_source
*667 fanout18
*668 fanout19
*669 gpio_in_buf
*670 gpio_logic_high
*671 hold1
*672 hold10
*673 hold11
*674 hold12
*675 hold13
*676 hold14
*677 hold15
*678 hold16
*679 hold17
*680 hold18
*681 hold19
*682 hold2
*683 hold3
*684 hold4
*685 hold5
*686 hold6
*687 hold7
*688 hold8
*689 hold9
*690 output1
*691 output10
*692 output11
*693 output12
*694 output13
*695 output14
*696 output15
*697 output16
*698 output17
*699 output2
*700 output3
*701 output4
*702 output5
*703 output6
*704 output7
*705 output8
*706 output9

*PORTS
gpio_defaults[0] I
gpio_defaults[10] I
gpio_defaults[11] I
gpio_defaults[12] I
gpio_defaults[1] I
gpio_defaults[2] I
gpio_defaults[3] I
gpio_defaults[4] I
gpio_defaults[5] I
gpio_defaults[6] I
gpio_defaults[7] I
gpio_defaults[8] I
gpio_defaults[9] I
mgmt_gpio_in O
mgmt_gpio_oeb I
mgmt_gpio_out I
one O
pad_gpio_ana_en O
pad_gpio_ana_pol O
pad_gpio_ana_sel O
pad_gpio_dm[0] O
pad_gpio_dm[1] O
pad_gpio_dm[2] O
pad_gpio_holdover O
pad_gpio_ib_mode_sel O
pad_gpio_in I
pad_gpio_inenb O
pad_gpio_out O
pad_gpio_outenb O
pad_gpio_slow_sel O
pad_gpio_vtrip_sel O
resetn I
resetn_out O
serial_clock I
serial_clock_out O
serial_data_in I
serial_data_out O
serial_load I
serial_load_out O
user_gpio_in O
user_gpio_oeb I
user_gpio_out I
zero O

*D_NET *1 0.00337268
*CONN
*P gpio_defaults[0] I
*I *570:B I *D sky130_fd_sc_hd__or2_1
*I *681:A I *D sky130_fd_sc_hd__dlygate4sd3_1
*CAP
1 gpio_defaults[0] 0.000583626
2 *570:B 2.41714e-05
3 *681:A 0.00107854
4 *1:10 0.00168634
5 *681:A *565:C 0
6 *681:A *593:A 0
7 *681:A *627:SET_B 0
8 *681:A *640:RESET_B 0
9 *681:A *641:D 0
10 *681:A *678:A 0
11 *681:A *7:22 0
12 *681:A *174:10 0
13 *681:A *188:8 0
14 *1:10 *565:A 0
15 *1:10 *577:A 0
16 *1:10 *577:B 0
17 *1:10 *5:14 0
18 *1:10 *105:7 0
*RES
1 gpio_defaults[0] *1:10 17.1964 
2 *1:10 *681:A 42.7107 
3 *1:10 *570:B 9.83571 
*END

*D_NET *2 0.00241299
*CONN
*P gpio_defaults[10] I
*I *676:A I *D sky130_fd_sc_hd__dlygate4sd3_1
*I *601:B I *D sky130_fd_sc_hd__or2_1
*CAP
1 gpio_defaults[10] 0.000291704
2 *676:A 0
3 *601:B 0.000914792
4 *2:9 0.0012065
5 *601:B *629:D 0
6 *601:B *649:RESET_B 0
7 *601:B *657:A 0
8 *601:B *3:7 0
9 *601:B *13:25 0
10 *601:B *77:11 0
11 *601:B *100:15 0
12 *601:B *100:40 0
13 *601:B *100:74 0
14 *601:B *100:81 0
15 *601:B *134:13 0
16 *2:9 *697:A 0
17 *2:9 *3:7 0
18 *2:9 *13:8 0
*RES
1 gpio_defaults[10] *2:9 6.75 
2 *2:9 *601:B 34.4071 
3 *2:9 *676:A 13.8 
*END

*D_NET *3 0.00385361
*CONN
*P gpio_defaults[11] I
*I *605:B I *D sky130_fd_sc_hd__or2_1
*I *679:A I *D sky130_fd_sc_hd__dlygate4sd3_1
*CAP
1 gpio_defaults[11] 0.000780472
2 *605:B 0.00066878
3 *679:A 0.000477554
4 *3:7 0.00192681
5 *605:B *628:SET_B 0
6 *605:B *11:20 0
7 *605:B *154:28 0
8 *679:A *628:SET_B 0
9 *679:A *629:D 0
10 *679:A *633:SET_B 0
11 *679:A *129:16 0
12 *679:A *154:28 0
13 *679:A *182:30 0
14 *3:7 *639:CLK 0
15 *3:7 *657:A 0
16 *3:7 *4:10 0
17 *3:7 *13:25 0
18 *3:7 *33:13 0
19 *3:7 *126:69 0
20 *601:B *3:7 0
21 *2:9 *3:7 0
*RES
1 gpio_defaults[11] *3:7 21.0796 
2 *3:7 *679:A 23.2557 
3 *3:7 *605:B 20.1435 
*END

*D_NET *4 0.0114069
*CONN
*P gpio_defaults[12] I
*I *612:B I *D sky130_fd_sc_hd__nand2_1
*I *609:B I *D sky130_fd_sc_hd__or2_1
*CAP
1 gpio_defaults[12] 0.000913238
2 *612:B 2.55032e-05
3 *609:B 0
4 *4:48 0.00297874
5 *4:33 0.00476471
6 *4:10 0.00272472
7 *612:B *614:A 0
8 *4:10 *639:CLK 0
9 *4:10 *639:RESET_B 0
10 *4:10 *686:A 0
11 *4:10 *695:A 0
12 *4:10 *33:13 0
13 *4:10 *122:66 0
14 *4:33 pad_gpio_out 0
15 *4:33 pad_gpio_outenb 0
16 *4:33 pad_gpio_vtrip_sel 0
17 *4:33 *609:A 0
18 *4:33 *658:A 0
19 *4:33 *11:24 0
20 *4:33 *81:15 0
21 *4:33 *82:11 0
22 *4:33 *130:38 0
23 *4:33 *179:10 0
24 *4:33 *179:12 0
25 *4:48 pad_gpio_ana_pol 0
26 *4:48 pad_gpio_dm[0] 0
27 *4:48 pad_gpio_holdover 0
28 *4:48 pad_gpio_ib_mode_sel 0
29 *4:48 zero 0
30 *4:48 *566:B 0
31 *4:48 *610:A 0
32 *4:48 *13:25 0
33 *4:48 *15:11 0
34 *4:48 *15:39 0
35 *4:48 *16:13 0
36 *4:48 *30:17 0
37 *4:48 *35:14 0
38 *4:48 *39:11 0
39 *4:48 *48:20 0
40 *4:48 *56:17 0
41 *4:48 *83:30 0
42 *4:48 *132:20 0
43 *3:7 *4:10 0
*RES
1 gpio_defaults[12] *4:10 24.25 
2 *4:10 *609:B 9.3 
3 *4:10 *4:33 35.1189 
4 *4:33 *4:48 49.0849 
5 *4:48 *612:B 17.7904 
*END

*D_NET *5 0.0141157
*CONN
*P gpio_defaults[1] I
*I *600:B I *D sky130_fd_sc_hd__nand2_1
*I *597:B I *D sky130_fd_sc_hd__or2_1
*CAP
1 gpio_defaults[1] 0.000718944
2 *600:B 0
3 *597:B 0
4 *5:62 0.0012929
5 *5:47 0.00337305
6 *5:40 0.00504602
7 *5:14 0.00368481
8 *5:14 *565:A 0
9 *5:14 *577:A 0
10 *5:14 *6:5 0
11 *5:14 *8:14 0
12 *5:14 *100:93 0
13 *5:14 *105:7 0
14 *5:14 *139:8 0
15 *5:40 pad_gpio_vtrip_sel 0
16 *5:40 *556:A1 0
17 *5:40 *627:CLK_N 0
18 *5:40 *628:SET_B 0
19 *5:40 *629:D 0
20 *5:40 *633:SET_B 0
21 *5:40 *640:CLK 0
22 *5:40 *658:A 0
23 *5:40 *9:24 0
24 *5:40 *10:33 0
25 *5:40 *88:44 0
26 *5:40 *100:93 0
27 *5:40 *119:11 0
28 *5:40 *129:16 0
29 *5:40 *152:11 0
30 *5:40 *176:13 0
31 *5:40 *180:21 0
32 *5:47 mgmt_gpio_in 0
33 *5:47 pad_gpio_ana_sel 0
34 *5:47 *13:43 0
35 *5:47 *48:20 0
36 *5:47 *55:26 0
37 *5:47 *56:17 0
38 *5:47 *77:17 0
39 *5:47 *88:35 0
40 *5:47 *132:20 0
41 *5:62 *558:B 0
42 *5:62 *560:A 0
43 *5:62 *566:A 0
44 *5:62 *567:B 0
45 *5:62 *599:A 0
46 *5:62 *600:A 0
47 *5:62 *16:13 0
48 *5:62 *88:18 0
49 *5:62 *88:35 0
50 *1:10 *5:14 0
*RES
1 gpio_defaults[1] *5:14 20.1071 
2 *5:14 *597:B 9.3 
3 *5:14 *5:40 37.395 
4 *5:40 *5:47 47.3511 
5 *5:47 *5:62 40.8036 
6 *5:62 *600:B 9.3 
*END

*D_NET *6 0.00231499
*CONN
*P gpio_defaults[2] I
*I *577:B I *D sky130_fd_sc_hd__or2_1
*I *678:A I *D sky130_fd_sc_hd__dlygate4sd3_1
*CAP
1 gpio_defaults[2] 0.000233874
2 *577:B 8.4707e-05
3 *678:A 0.000838916
4 *6:5 0.0011575
5 *577:B *577:A 0
6 *678:A *663:A 0
7 *678:A *7:22 0
8 *678:A *8:14 0
9 *678:A *125:22 0
10 *678:A *188:8 0
11 *6:5 *7:22 0
12 *6:5 *8:14 0
13 *681:A *678:A 0
14 *1:10 *577:B 0
15 *5:14 *6:5 0
*RES
1 gpio_defaults[2] *6:5 5.375 
2 *6:5 *678:A 32.8357 
3 *6:5 *577:B 15.5679 
*END

*D_NET *7 0.00718532
*CONN
*P gpio_defaults[3] I
*I *589:B I *D sky130_fd_sc_hd__or2_1
*I *680:A I *D sky130_fd_sc_hd__dlygate4sd3_1
*CAP
1 gpio_defaults[3] 0.00157511
2 *589:B 0.00155123
3 *680:A 0.000189721
4 *7:25 0.00201755
5 *7:22 0.00185171
6 *589:B pad_gpio_dm[2] 0
7 *589:B *604:A 0
8 *589:B *630:SET_B 0
9 *589:B *634:SET_B 0
10 *589:B *665:A 0
11 *589:B *49:24 0
12 *589:B *78:13 0
13 *589:B *100:40 0
14 *589:B *104:18 0
15 *589:B *122:42 0
16 *589:B *126:9 0
17 *589:B *129:16 0
18 *589:B *134:13 0
19 *680:A *642:RESET_B 0
20 *680:A *12:25 0
21 *7:22 *565:C 0
22 *7:22 *627:SET_B 0
23 *7:22 *641:D 0
24 *7:22 *648:D 0
25 *7:22 *9:24 0
26 *7:22 *12:25 0
27 *7:22 *27:13 0
28 *7:25 *642:RESET_B 0
29 *7:25 *648:D 0
30 *7:25 *649:CLK 0
31 *7:25 *12:25 0
32 *678:A *7:22 0
33 *681:A *7:22 0
34 *6:5 *7:22 0
*RES
1 gpio_defaults[3] *7:22 48.9643 
2 *7:22 *7:25 10.8482 
3 *7:25 *680:A 17.8804 
4 *7:25 *589:B 39.3099 
*END

*D_NET *8 0.00282615
*CONN
*P gpio_defaults[4] I
*I *677:A I *D sky130_fd_sc_hd__dlygate4sd3_1
*I *593:B I *D sky130_fd_sc_hd__or2_1
*CAP
1 gpio_defaults[4] 0.000947916
2 *677:A 0
3 *593:B 0.000465157
4 *8:14 0.00141307
5 *593:B *660:A 0
6 *593:B *663:A 0
7 *593:B *139:8 0
8 *8:14 *663:A 0
9 *8:14 *9:24 0
10 *8:14 *27:13 0
11 *8:14 *125:22 0
12 *8:14 *139:8 0
13 *8:14 *173:7 0
14 *8:14 *187:9 0
15 *678:A *8:14 0
16 *5:14 *8:14 0
17 *6:5 *8:14 0
*RES
1 gpio_defaults[4] *8:14 34.6071 
2 *8:14 *593:B 28.7821 
3 *8:14 *677:A 9.3 
*END

*D_NET *9 0.00659874
*CONN
*P gpio_defaults[5] I
*I *613:B I *D sky130_fd_sc_hd__or2_1
*I *616:B I *D sky130_fd_sc_hd__nand2_1
*CAP
1 gpio_defaults[5] 0.00187419
2 *613:B 0.000124066
3 *616:B 0.000276636
4 *9:29 0.00142517
5 *9:24 0.00289867
6 *613:B *124:17 0
7 *613:B *140:36 0
8 *616:B *582:A 0
9 *616:B *616:A 0
10 *616:B *636:SET_B 0
11 *616:B *59:10 0
12 *616:B *140:36 0
13 *9:24 *565:C 0
14 *9:24 *593:A 0
15 *9:24 *627:CLK_N 0
16 *9:24 *629:D 0
17 *9:24 *632:D 0
18 *9:24 *640:CLK 0
19 *9:24 *640:RESET_B 0
20 *9:24 *648:D 0
21 *9:24 *648:RESET_B 0
22 *9:24 *10:33 0
23 *9:24 *27:13 0
24 *9:24 *126:51 0
25 *9:24 *141:49 0
26 *9:29 pad_gpio_dm[1] 0
27 *9:29 pad_gpio_dm[2] 0
28 *9:29 *636:SET_B 0
29 *9:29 *645:D 0
30 *9:29 *647:D 0
31 *9:29 *703:A 0
32 *9:29 *705:A 0
33 *9:29 *59:10 0
34 *9:29 *81:15 0
35 *9:29 *124:8 0
36 *9:29 *134:13 0
37 *9:29 *140:36 0
38 *9:29 *175:12 0
39 *5:40 *9:24 0
40 *7:22 *9:24 0
41 *8:14 *9:24 0
*RES
1 gpio_defaults[5] *9:24 47.1266 
2 *9:24 *9:29 23.4018 
3 *9:29 *616:B 19.7821 
4 *9:29 *613:B 16.3893 
*END

*D_NET *10 0.00889475
*CONN
*P gpio_defaults[6] I
*I *620:B I *D sky130_fd_sc_hd__nand2_1
*I *617:B I *D sky130_fd_sc_hd__or2_1
*CAP
1 gpio_defaults[6] 0.00225335
2 *620:B 0.00138265
3 *617:B 0
4 *10:38 0.00219403
5 *10:33 0.00306472
6 *620:B *574:A 0
7 *620:B *614:A 0
8 *620:B *617:A 0
9 *620:B *619:A 0
10 *620:B *637:D 0
11 *620:B *637:SET_B 0
12 *620:B *638:CLK_N 0
13 *620:B *690:A 0
14 *620:B *699:A 0
15 *620:B *700:A 0
16 *620:B *30:17 0
17 *620:B *32:25 0
18 *620:B *85:22 0
19 *620:B *126:9 0
20 *620:B *140:8 0
21 *10:33 pad_gpio_vtrip_sel 0
22 *10:33 *565:B 0
23 *10:33 *604:B 0
24 *10:33 *634:D 0
25 *10:33 *11:20 0
26 *10:33 *13:25 0
27 *10:33 *62:17 0
28 *10:33 *80:11 0
29 *10:33 *122:66 0
30 *10:33 *130:21 0
31 *10:33 *147:24 0
32 *10:33 *152:11 0
33 *10:33 *154:28 0
34 *10:33 *185:9 0
35 *10:38 mgmt_gpio_in 0
36 *10:38 *594:A 0
37 *10:38 *634:D 0
38 *10:38 *635:SET_B 0
39 *10:38 *662:A 0
40 *10:38 *665:A 0
41 *10:38 *675:A 0
42 *10:38 *122:50 0
43 *10:38 *155:14 0
44 *5:40 *10:33 0
45 *9:24 *10:33 0
*RES
1 gpio_defaults[6] *10:33 38.2328 
2 *10:33 *10:38 22.5625 
3 *10:38 *617:B 9.3 
4 *10:38 *620:B 45.7735 
*END

*D_NET *11 0.00783578
*CONN
*P gpio_defaults[7] I
*I *621:B I *D sky130_fd_sc_hd__or2_1
*I *624:B I *D sky130_fd_sc_hd__nand2_1
*CAP
1 gpio_defaults[7] 0.00187885
2 *621:B 0
3 *624:B 0.000809311
4 *11:24 0.00203904
5 *11:20 0.00310858
6 *624:B *636:RESET_B 0
7 *624:B *32:25 0
8 *624:B *85:22 0
9 *624:B *140:103 0
10 *624:B *155:14 0
11 *11:20 *565:B 0
12 *11:20 *604:B 0
13 *11:20 *628:SET_B 0
14 *11:20 *632:RESET_B 0
15 *11:20 *12:9 0
16 *11:20 *12:16 0
17 *11:20 *100:91 0
18 *11:20 *154:28 0
19 *11:20 *183:12 0
20 *11:24 *553:A 0
21 *11:24 *609:A 0
22 *11:24 *617:A 0
23 *11:24 *621:A 0
24 *11:24 *631:RESET_B 0
25 *11:24 *656:TE_B 0
26 *11:24 *705:A 0
27 *11:24 *15:45 0
28 *11:24 *64:11 0
29 *11:24 *82:11 0
30 *11:24 *85:22 0
31 *11:24 *148:20 0
32 *11:24 *164:11 0
33 *11:24 *180:21 0
34 *605:B *11:20 0
35 *4:33 *11:24 0
36 *10:33 *11:20 0
*RES
1 gpio_defaults[7] *11:20 34.1982 
2 *11:20 *11:24 32.3482 
3 *11:24 *624:B 35.9071 
4 *11:24 *621:B 9.3 
*END

*D_NET *12 0.00660331
*CONN
*P gpio_defaults[8] I
*I *581:B I *D sky130_fd_sc_hd__or2_1
*I *584:B I *D sky130_fd_sc_hd__nand2_1
*CAP
1 gpio_defaults[8] 0.000425138
2 *581:B 0
3 *584:B 0
4 *12:25 0.0017313
5 *12:16 0.00287652
6 *12:9 0.00157035
7 *12:9 *626:D 0
8 *12:9 *13:8 0
9 *12:9 *182:30 0
10 *12:16 *593:A 0
11 *12:16 *604:A 0
12 *12:16 *604:B 0
13 *12:16 *626:D 0
14 *12:16 *627:RESET_B 0
15 *12:16 *628:D 0
16 *12:16 *40:14 0
17 *12:16 *182:30 0
18 *12:25 *642:RESET_B 0
19 *12:25 *648:D 0
20 *12:25 *30:17 0
21 *12:25 *49:24 0
22 *12:25 *63:29 0
23 *12:25 *67:17 0
24 *12:25 *101:36 0
25 *12:25 *122:6 0
26 *12:25 *122:11 0
27 *12:25 *178:20 0
28 *12:25 *194:11 0
29 *680:A *12:25 0
30 *7:22 *12:25 0
31 *7:25 *12:25 0
32 *11:20 *12:9 0
33 *11:20 *12:16 0
*RES
1 gpio_defaults[8] *12:9 9.78571 
2 *12:9 *12:16 27.2777 
3 *12:16 *12:25 43.9582 
4 *12:25 *584:B 9.3 
5 *12:9 *581:B 13.8 
*END

*D_NET *13 0.0128396
*CONN
*P gpio_defaults[9] I
*I *588:B I *D sky130_fd_sc_hd__nand2_1
*I *585:B I *D sky130_fd_sc_hd__or2_1
*CAP
1 gpio_defaults[9] 0.000653766
2 *588:B 0
3 *585:B 3.50807e-05
4 *13:43 0.00262287
5 *13:25 0.00573094
6 *13:8 0.00379691
7 *13:8 *572:A 0
8 *13:8 *585:A 0
9 *13:8 *655:A 0
10 *13:8 *182:30 0
11 *13:25 pad_gpio_dm[0] 0
12 *13:25 pad_gpio_holdover 0
13 *13:25 pad_gpio_ib_mode_sel 0
14 *13:25 pad_gpio_out 0
15 *13:25 pad_gpio_vtrip_sel 0
16 *13:25 *26:24 0
17 *13:25 *34:23 0
18 *13:25 *68:28 0
19 *13:25 *83:21 0
20 *13:25 *83:30 0
21 *13:25 *147:24 0
22 *13:25 *154:28 0
23 *13:25 *157:24 0
24 *13:43 mgmt_gpio_in 0
25 *13:43 pad_gpio_ana_sel 0
26 *13:43 *566:B 0
27 *13:43 *586:A 0
28 *13:43 *16:13 0
29 *13:43 *56:17 0
30 *13:43 *59:10 0
31 *13:43 *69:23 0
32 *13:43 *97:11 0
33 *13:43 *104:32 0
34 *13:43 *130:38 0
35 *13:43 *130:42 0
36 *13:43 *132:23 0
37 *601:B *13:25 0
38 *2:9 *13:8 0
39 *3:7 *13:25 0
40 *4:48 *13:25 0
41 *5:47 *13:43 0
42 *10:33 *13:25 0
43 *12:9 *13:8 0
*RES
1 gpio_defaults[9] *13:8 19.0536 
2 *13:8 *585:B 10.0321 
3 *13:8 *13:25 49.7777 
4 *13:25 *13:43 48.1869 
5 *13:43 *588:B 9.3 
*END

*D_NET *14 0.00393795
*CONN
*P mgmt_gpio_in O
*I *656:Z O *D sky130_fd_sc_hd__ebufn_8
*CAP
1 mgmt_gpio_in 0.00196897
2 *656:Z 0.00196897
3 mgmt_gpio_in one 0
4 mgmt_gpio_in pad_gpio_dm[0] 0
5 mgmt_gpio_in pad_gpio_dm[1] 0
6 mgmt_gpio_in pad_gpio_dm[2] 0
7 mgmt_gpio_in zero 0
8 mgmt_gpio_in *68:25 0
9 mgmt_gpio_in *77:17 0
10 mgmt_gpio_in *122:42 0
11 mgmt_gpio_in *130:38 0
12 *5:47 mgmt_gpio_in 0
13 *10:38 mgmt_gpio_in 0
14 *13:43 mgmt_gpio_in 0
*RES
1 *656:Z mgmt_gpio_in 44.2571 
*END

*D_NET *15 0.00966486
*CONN
*P mgmt_gpio_oeb I
*I *555:B I *D sky130_fd_sc_hd__and3_1
*I *557:A I *D sky130_fd_sc_hd__nand2_1
*I *562:B I *D sky130_fd_sc_hd__nand3_1
*CAP
1 mgmt_gpio_oeb 5.62367e-05
2 *555:B 0
3 *557:A 0.00070336
4 *562:B 8.4707e-05
5 *15:45 0.00157462
6 *15:39 0.00302276
7 *15:11 0.00175343
8 *15:7 0.00246974
9 *557:A *564:A 0
10 *557:A *568:A 0
11 *557:A *622:A 0
12 *557:A *88:35 0
13 *557:A *164:11 0
14 *15:7 one 0
15 *15:11 pad_gpio_dm[0] 0
16 *15:11 *130:42 0
17 *15:39 pad_gpio_dm[0] 0
18 *15:39 *56:20 0
19 *15:39 *97:12 0
20 *15:39 *130:42 0
21 *15:39 *132:26 0
22 *15:45 *634:CLK_N 0
23 *15:45 *705:A 0
24 *15:45 *25:8 0
25 *15:45 *69:33 0
26 *15:45 *180:21 0
27 *4:48 *15:11 0
28 *4:48 *15:39 0
29 *11:24 *15:45 0
*RES
1 mgmt_gpio_oeb *15:7 3.61367 
2 *15:7 *15:11 24.8125 
3 *15:11 *562:B 11.0679 
4 *15:11 *557:A 33.9071 
5 *15:7 *15:39 45.6339 
6 *15:39 *15:45 42.0714 
7 *15:45 *555:B 9.3 
*END

*D_NET *16 0.00384014
*CONN
*P mgmt_gpio_out I
*I *563:A I *D sky130_fd_sc_hd__inv_2
*CAP
1 mgmt_gpio_out 0.00192007
2 *563:A 0
3 *16:13 0.00192007
4 *16:13 one 0
5 *16:13 pad_gpio_ana_sel 0
6 *16:13 pad_gpio_dm[0] 0
7 *16:13 *564:B 0
8 *16:13 *30:17 0
9 *16:13 *74:11 0
10 *16:13 *83:30 0
11 *16:13 *88:35 0
12 *16:13 *147:24 0
13 *16:13 *157:17 0
14 *4:48 *16:13 0
15 *5:62 *16:13 0
16 *13:43 *16:13 0
*RES
1 mgmt_gpio_out *16:13 46.6436 
2 *16:13 *563:A 9.3 
*END

*D_NET *17 0.00389929
*CONN
*P one O
*I *666:HI O *D sky130_fd_sc_hd__conb_1
*CAP
1 one 0.00194964
2 *666:HI 0.00194964
3 one pad_gpio_dm[0] 0
4 one zero 0
5 one *568:A 0
6 one *586:A 0
7 one *55:26 0
8 one *56:17 0
9 one *74:11 0
10 one *82:11 0
11 one *88:35 0
12 one *146:18 0
13 one *157:17 0
14 one *179:17 0
15 mgmt_gpio_in one 0
16 *15:7 one 0
17 *16:13 one 0
*RES
1 *666:HI one 45.7182 
*END

*D_NET *18 0.00325201
*CONN
*P pad_gpio_ana_en O
*I *690:X O *D sky130_fd_sc_hd__buf_2
*CAP
1 pad_gpio_ana_en 0.001626
2 *690:X 0.001626
3 pad_gpio_ana_en pad_gpio_ana_pol 0
4 pad_gpio_ana_en pad_gpio_dm[1] 0
5 pad_gpio_ana_en *30:17 0
6 pad_gpio_ana_en *55:19 0
7 pad_gpio_ana_en *88:35 0
8 pad_gpio_ana_en *132:20 0
*RES
1 *690:X pad_gpio_ana_en 41.619 
*END

*D_NET *19 0.00446415
*CONN
*P pad_gpio_ana_pol O
*I *699:X O *D sky130_fd_sc_hd__buf_2
*CAP
1 pad_gpio_ana_pol 0.00223207
2 *699:X 0.00223207
3 pad_gpio_ana_pol pad_gpio_ana_sel 0
4 pad_gpio_ana_pol pad_gpio_dm[1] 0
5 pad_gpio_ana_pol zero 0
6 pad_gpio_ana_pol *586:A 0
7 pad_gpio_ana_pol *602:A 0
8 pad_gpio_ana_pol *35:14 0
9 pad_gpio_ana_pol *68:25 0
10 pad_gpio_ana_pol *132:20 0
11 pad_gpio_ana_pol *147:17 0
12 pad_gpio_ana_en pad_gpio_ana_pol 0
13 *4:48 pad_gpio_ana_pol 0
*RES
1 *699:X pad_gpio_ana_pol 41.1295 
*END

*D_NET *20 0.00355378
*CONN
*P pad_gpio_ana_sel O
*I *700:X O *D sky130_fd_sc_hd__buf_2
*CAP
1 pad_gpio_ana_sel 0.00177689
2 *700:X 0.00177689
3 pad_gpio_ana_sel pad_gpio_dm[0] 0
4 pad_gpio_ana_sel pad_gpio_dm[1] 0
5 pad_gpio_ana_sel *39:11 0
6 pad_gpio_ana_sel *48:20 0
7 pad_gpio_ana_sel *56:17 0
8 pad_gpio_ana_sel *130:38 0
9 pad_gpio_ana_sel *147:24 0
10 pad_gpio_ana_pol pad_gpio_ana_sel 0
11 *5:47 pad_gpio_ana_sel 0
12 *13:43 pad_gpio_ana_sel 0
13 *16:13 pad_gpio_ana_sel 0
*RES
1 *700:X pad_gpio_ana_sel 44.0715 
*END

*D_NET *21 0.00333995
*CONN
*P pad_gpio_dm[0] O
*I *701:X O *D sky130_fd_sc_hd__buf_2
*CAP
1 pad_gpio_dm[0] 0.00166997
2 *701:X 0.00166997
3 pad_gpio_dm[0] pad_gpio_dm[1] 0
4 pad_gpio_dm[0] *602:A 0
5 pad_gpio_dm[0] *700:A 0
6 pad_gpio_dm[0] *30:17 0
7 pad_gpio_dm[0] *68:25 0
8 pad_gpio_dm[0] *88:35 0
9 pad_gpio_dm[0] *157:17 0
10 pad_gpio_dm[0] *157:24 0
11 mgmt_gpio_in pad_gpio_dm[0] 0
12 one pad_gpio_dm[0] 0
13 pad_gpio_ana_sel pad_gpio_dm[0] 0
14 *4:48 pad_gpio_dm[0] 0
15 *13:25 pad_gpio_dm[0] 0
16 *15:11 pad_gpio_dm[0] 0
17 *15:39 pad_gpio_dm[0] 0
18 *16:13 pad_gpio_dm[0] 0
*RES
1 *701:X pad_gpio_dm[0] 41.6429 
*END

*D_NET *22 0.00452826
*CONN
*P pad_gpio_dm[1] O
*I *702:X O *D sky130_fd_sc_hd__buf_2
*CAP
1 pad_gpio_dm[1] 0.00226413
2 *702:X 0.00226413
3 pad_gpio_dm[1] pad_gpio_dm[2] 0
4 pad_gpio_dm[1] *566:B 0
5 pad_gpio_dm[1] *602:A 0
6 pad_gpio_dm[1] *645:D 0
7 pad_gpio_dm[1] *30:17 0
8 pad_gpio_dm[1] *54:13 0
9 pad_gpio_dm[1] *122:42 0
10 pad_gpio_dm[1] *132:20 0
11 mgmt_gpio_in pad_gpio_dm[1] 0
12 pad_gpio_ana_en pad_gpio_dm[1] 0
13 pad_gpio_ana_pol pad_gpio_dm[1] 0
14 pad_gpio_ana_sel pad_gpio_dm[1] 0
15 pad_gpio_dm[0] pad_gpio_dm[1] 0
16 *9:29 pad_gpio_dm[1] 0
*RES
1 *702:X pad_gpio_dm[1] 40.6672 
*END

*D_NET *23 0.0038025
*CONN
*P pad_gpio_dm[2] O
*I *703:X O *D sky130_fd_sc_hd__buf_2
*CAP
1 pad_gpio_dm[2] 0.00190125
2 *703:X 0.00190125
3 pad_gpio_dm[2] pad_gpio_holdover 0
4 pad_gpio_dm[2] *630:SET_B 0
5 pad_gpio_dm[2] *631:RESET_B 0
6 pad_gpio_dm[2] *703:A 0
7 pad_gpio_dm[2] *40:14 0
8 pad_gpio_dm[2] *122:42 0
9 pad_gpio_dm[2] *130:38 0
10 mgmt_gpio_in pad_gpio_dm[2] 0
11 pad_gpio_dm[1] pad_gpio_dm[2] 0
12 *589:B pad_gpio_dm[2] 0
13 *9:29 pad_gpio_dm[2] 0
*RES
1 *703:X pad_gpio_dm[2] 24.6085 
*END

*D_NET *24 0.00528478
*CONN
*P pad_gpio_holdover O
*I *704:X O *D sky130_fd_sc_hd__buf_2
*CAP
1 pad_gpio_holdover 0.00125884
2 *704:X 0.00138355
3 *24:7 0.00264239
4 pad_gpio_holdover pad_gpio_ib_mode_sel 0
5 pad_gpio_holdover pad_gpio_inenb 0
6 pad_gpio_holdover pad_gpio_slow_sel 0
7 pad_gpio_holdover serial_clock_out 0
8 pad_gpio_holdover *668:A 0
9 pad_gpio_holdover *25:8 0
10 pad_gpio_holdover *26:28 0
11 pad_gpio_holdover *32:15 0
12 pad_gpio_holdover *34:23 0
13 pad_gpio_holdover *40:17 0
14 pad_gpio_holdover *57:16 0
15 pad_gpio_holdover *146:25 0
16 pad_gpio_holdover *148:20 0
17 *24:7 *629:RESET_B 0
18 *24:7 *668:A 0
19 *24:7 *34:23 0
20 *24:7 *56:26 0
21 pad_gpio_dm[2] pad_gpio_holdover 0
22 *4:48 pad_gpio_holdover 0
23 *13:25 pad_gpio_holdover 0
*RES
1 *704:X *24:7 42.675 
2 *24:7 pad_gpio_holdover 39.1583 
*END

*D_NET *25 0.00432215
*CONN
*P pad_gpio_ib_mode_sel O
*I *705:X O *D sky130_fd_sc_hd__buf_2
*CAP
1 pad_gpio_ib_mode_sel 0.000510913
2 *705:X 0.00165016
3 *25:8 0.00216108
4 pad_gpio_ib_mode_sel *26:24 0
5 pad_gpio_ib_mode_sel *40:17 0
6 pad_gpio_ib_mode_sel *57:16 0
7 *25:8 pad_gpio_inenb 0
8 *25:8 pad_gpio_outenb 0
9 *25:8 *34:23 0
10 *25:8 *146:25 0
11 pad_gpio_holdover pad_gpio_ib_mode_sel 0
12 pad_gpio_holdover *25:8 0
13 *4:48 pad_gpio_ib_mode_sel 0
14 *13:25 pad_gpio_ib_mode_sel 0
15 *15:45 *25:8 0
*RES
1 *705:X *25:8 48.7643 
2 *25:8 pad_gpio_ib_mode_sel 31.3012 
*END

*D_NET *26 0.00666574
*CONN
*P pad_gpio_in I
*I *656:A I *D sky130_fd_sc_hd__ebufn_8
*I *568:A I *D sky130_fd_sc_hd__inv_2
*CAP
1 pad_gpio_in 0.000619315
2 *656:A 6.50276e-05
3 *568:A 0.00135289
4 *26:28 0.00271356
5 *26:24 0.00191496
6 *568:A *622:A 0
7 *568:A *74:11 0
8 *568:A *82:11 0
9 *568:A *147:17 0