*SPEF "ieee 1481-1999"
*DESIGN "gpio_control_block"
*DATE "11:11:11 Fri 11 11, 1111"
*VENDOR "OpenRCX"
*PROGRAM "Parallel Extraction"
*VERSION "1.0"
*DESIGN_FLOW "NAME_SCOPE LOCAL" "PIN_CAP NONE"
*DIVIDER /
*DELIMITER :
*BUS_DELIMITER []
*T_UNIT 1 NS
*C_UNIT 1 PF
*R_UNIT 1 OHM
*L_UNIT 1 HENRY

*NAME_MAP
*1 gpio_defaults[0]
*2 gpio_defaults[10]
*3 gpio_defaults[11]
*4 gpio_defaults[12]
*5 gpio_defaults[1]
*6 gpio_defaults[2]
*7 gpio_defaults[3]
*8 gpio_defaults[4]
*9 gpio_defaults[5]
*10 gpio_defaults[6]
*11 gpio_defaults[7]
*12 gpio_defaults[8]
*13 gpio_defaults[9]
*14 mgmt_gpio_in
*15 mgmt_gpio_oeb
*16 mgmt_gpio_out
*17 one
*18 pad_gpio_ana_en
*19 pad_gpio_ana_pol
*20 pad_gpio_ana_sel
*21 pad_gpio_dm[0]
*22 pad_gpio_dm[1]
*23 pad_gpio_dm[2]
*24 pad_gpio_holdover
*25 pad_gpio_ib_mode_sel
*26 pad_gpio_in
*27 pad_gpio_inenb
*28 pad_gpio_out
*29 pad_gpio_outenb
*30 pad_gpio_slow_sel
*31 pad_gpio_vtrip_sel
*32 resetn
*33 resetn_out
*34 serial_clock
*35 serial_clock_out
*36 serial_data_in
*37 serial_data_out
*38 serial_load
*39 serial_load_out
*40 user_gpio_in
*41 user_gpio_oeb
*42 user_gpio_out
*47 zero
*48 _000_
*49 _001_
*50 _002_
*51 _003_
*52 _004_
*53 _005_
*54 _006_
*55 _007_
*56 _008_
*57 _009_
*58 _010_
*59 _011_
*60 _012_
*61 _013_
*62 _014_
*63 _015_
*64 _016_
*65 _017_
*66 _018_
*67 _019_
*68 _020_
*69 _021_
*70 _022_
*71 _023_
*72 _024_
*73 _025_
*74 _026_
*75 _027_
*76 _042_
*77 _043_
*78 _044_
*79 _045_
*80 _046_
*81 _047_
*82 _048_
*83 _049_
*84 _050_
*85 _051_
*86 _052_
*87 _053_
*88 _054_
*89 _055_
*90 _056_
*91 _057_
*92 _058_
*93 _059_
*94 _060_
*95 _061_
*96 _062_
*97 _063_
*98 _064_
*99 _065_
*100 _066_
*101 _067_
*102 _068_
*103 _069_
*104 _070_
*105 _071_
*106 _072_
*107 _073_
*108 _074_
*109 _075_
*110 _076_
*111 _077_
*112 _078_
*113 _079_
*114 _080_
*115 _081_
*116 _082_
*117 _083_
*118 _084_
*119 clknet_0__068_
*120 clknet_0_serial_clock
*121 clknet_0_serial_load
*122 clknet_1_0__leaf__068_
*123 clknet_1_0__leaf_serial_clock
*124 clknet_1_0__leaf_serial_load
*125 clknet_1_1__leaf__068_
*126 clknet_1_1__leaf_serial_clock
*127 clknet_1_1__leaf_serial_load
*128 gpio_logic1
*129 gpio_outenb
*130 mgmt_ena
*131 net1
*132 net10
*133 net11
*134 net12
*135 net13
*136 net14
*137 net15
*138 net16
*139 net17
*140 net18
*141 net19
*142 net2
*143 net20
*144 net21
*145 net22
*146 net23
*147 net24
*148 net25
*149 net26
*150 net27
*151 net28
*152 net29
*153 net3
*154 net30
*155 net31
*156 net32
*157 net33
*158 net34
*159 net35
*160 net36
*161 net37
*162 net38
*163 net39
*164 net4
*165 net40
*166 net41
*167 net42
*168 net43
*169 net44
*170 net45
*171 net46
*172 net47
*173 net48
*174 net49
*175 net5
*176 net50
*177 net51
*178 net52
*179 net6
*180 net7
*181 net8
*182 net9
*183 shift_register\[0\]
*184 shift_register\[10\]
*185 shift_register\[11\]
*186 shift_register\[12\]
*187 shift_register\[1\]
*188 shift_register\[2\]
*189 shift_register\[3\]
*190 shift_register\[4\]
*191 shift_register\[5\]
*192 shift_register\[6\]
*193 shift_register\[7\]
*194 shift_register\[8\]
*195 shift_register\[9\]
*196 FILLER_0_26
*197 FILLER_0_31
*198 FILLER_0_38
*199 FILLER_0_45
*200 FILLER_0_52
*201 FILLER_0_57
*202 FILLER_0_64
*203 FILLER_0_71
*204 FILLER_0_80
*205 FILLER_0_92
*206 FILLER_10_26
*207 FILLER_10_29
*208 FILLER_10_3
*209 FILLER_10_52
*210 FILLER_10_82
*211 FILLER_10_85
*212 FILLER_10_92
*213 FILLER_11_3
*214 FILLER_11_30
*215 FILLER_11_54
*216 FILLER_11_57
*217 FILLER_11_85
*218 FILLER_11_9
*219 FILLER_11_92
*220 FILLER_12_26
*221 FILLER_12_29
*222 FILLER_12_3
*223 FILLER_12_39
*224 FILLER_12_67
*225 FILLER_12_79
*226 FILLER_12_83
*227 FILLER_12_85
*228 FILLER_12_92
*229 FILLER_13_16
*230 FILLER_13_3
*231 FILLER_13_46
*232 FILLER_13_54
*233 FILLER_13_57
*234 FILLER_13_67
*235 FILLER_13_7
*236 FILLER_13_92
*237 FILLER_14_26
*238 FILLER_14_29
*239 FILLER_14_3
*240 FILLER_14_33
*241 FILLER_14_42
*242 FILLER_14_46
*243 FILLER_14_67
*244 FILLER_14_77
*245 FILLER_14_83
*246 FILLER_14_85
*247 FILLER_14_91
*248 FILLER_15_24
*249 FILLER_15_3
*250 FILLER_15_54
*251 FILLER_15_57
*252 FILLER_15_66
*253 FILLER_15_90
*254 FILLER_16_14
*255 FILLER_16_26
*256 FILLER_16_29
*257 FILLER_16_3
*258 FILLER_16_51
*259 FILLER_16_81
*260 FILLER_16_85
*261 FILLER_16_92
*262 FILLER_17_10
*263 FILLER_17_16
*264 FILLER_17_3
*265 FILLER_17_43
*266 FILLER_17_54
*267 FILLER_17_57
*268 FILLER_17_85
*269 FILLER_17_92
*270 FILLER_18_14
*271 FILLER_18_26
*272 FILLER_18_29
*273 FILLER_18_3
*274 FILLER_18_35
*275 FILLER_18_44
*276 FILLER_18_48
*277 FILLER_18_69
*278 FILLER_18_78
*279 FILLER_18_85
*280 FILLER_18_91
*281 FILLER_19_3
*282 FILLER_19_30
*283 FILLER_19_54
*284 FILLER_19_57
*285 FILLER_19_79
*286 FILLER_19_9
*287 FILLER_19_91
*288 FILLER_1_26
*289 FILLER_1_31
*290 FILLER_1_38
*291 FILLER_1_45
*292 FILLER_1_52
*293 FILLER_1_59
*294 FILLER_1_66
*295 FILLER_1_73
*296 FILLER_1_80
*297 FILLER_1_85
*298 FILLER_1_92
*299 FILLER_20_26
*300 FILLER_20_29
*301 FILLER_20_3
*302 FILLER_20_34
*303 FILLER_20_64
*304 FILLER_20_70
*305 FILLER_20_79
*306 FILLER_20_83
*307 FILLER_20_85
*308 FILLER_20_92
*309 FILLER_21_14
*310 FILLER_21_3
*311 FILLER_21_44
*312 FILLER_21_54
*313 FILLER_21_57
*314 FILLER_21_81
*315 FILLER_21_85
*316 FILLER_21_92
*317 FILLER_22_26
*318 FILLER_22_29
*319 FILLER_22_3
*320 FILLER_22_40
*321 FILLER_22_72
*322 FILLER_22_76
*323 FILLER_22_81
*324 FILLER_22_85
*325 FILLER_22_91
*326 FILLER_23_14
*327 FILLER_23_3
*328 FILLER_23_44
*329 FILLER_23_48
*330 FILLER_23_54
*331 FILLER_23_57
*332 FILLER_23_61
*333 FILLER_23_88
*334 FILLER_24_26
*335 FILLER_24_29
*336 FILLER_24_3
*337 FILLER_24_34
*338 FILLER_24_43
*339 FILLER_24_67
*340 FILLER_24_81
*341 FILLER_24_85
*342 FILLER_24_92
*343 FILLER_25_11
*344 FILLER_25_15
*345 FILLER_25_21
*346 FILLER_25_3
*347 FILLER_25_30
*348 FILLER_25_42
*349 FILLER_25_54
*350 FILLER_25_57
*351 FILLER_25_61
*352 FILLER_25_82
*353 FILLER_25_86
*354 FILLER_25_91
*355 FILLER_26_10
*356 FILLER_26_18
*357 FILLER_26_26
*358 FILLER_26_29
*359 FILLER_26_3
*360 FILLER_26_46
*361 FILLER_26_54
*362 FILLER_26_57
*363 FILLER_26_61
*364 FILLER_26_82
*365 FILLER_26_85
*366 FILLER_26_91
*367 FILLER_2_26
*368 FILLER_2_31
*369 FILLER_2_39
*370 FILLER_2_44
*371 FILLER_2_50
*372 FILLER_2_52
*373 FILLER_2_57
*374 FILLER_2_64
*375 FILLER_2_71
*376 FILLER_2_79
*377 FILLER_2_85
*378 FILLER_2_92
*379 FILLER_3_26
*380 FILLER_3_37
*381 FILLER_3_44
*382 FILLER_3_51
*383 FILLER_3_58
*384 FILLER_3_69
*385 FILLER_3_76
*386 FILLER_3_80
*387 FILLER_3_85
*388 FILLER_3_92
*389 FILLER_4_26
*390 FILLER_4_31
*391 FILLER_4_38
*392 FILLER_4_42
*393 FILLER_4_46
*394 FILLER_4_50
*395 FILLER_4_52
*396 FILLER_4_57
*397 FILLER_4_65
*398 FILLER_4_69
*399 FILLER_4_77
*400 FILLER_4_82
*401 FILLER_4_92
*402 FILLER_5_26
*403 FILLER_5_38
*404 FILLER_5_45
*405 FILLER_5_52
*406 FILLER_5_59
*407 FILLER_5_63
*408 FILLER_5_67
*409 FILLER_5_74
*410 FILLER_5_78
*411 FILLER_5_80
*412 FILLER_5_92
*413 FILLER_6_26
*414 FILLER_6_31
*415 FILLER_6_42
*416 FILLER_6_49
*417 FILLER_6_52
*418 FILLER_6_58
*419 FILLER_6_65
*420 FILLER_6_72
*421 FILLER_6_80
*422 FILLER_6_84
*423 FILLER_6_92
*424 FILLER_7_26
*425 FILLER_7_32
*426 FILLER_7_36
*427 FILLER_7_44
*428 FILLER_7_54
*429 FILLER_7_58
*430 FILLER_7_64
*431 FILLER_7_71
*432 FILLER_7_80
*433 FILLER_7_86
*434 FILLER_7_91
*435 FILLER_8_12
*436 FILLER_8_20
*437 FILLER_8_29
*438 FILLER_8_3
*439 FILLER_8_51
*440 FILLER_8_55
*441 FILLER_8_57
*442 FILLER_8_67
*443 FILLER_8_7
*444 FILLER_8_75
*445 FILLER_8_82
*446 FILLER_8_85
*447 FILLER_8_91
*448 FILLER_9_16
*449 FILLER_9_24
*450 FILLER_9_3
*451 FILLER_9_45
*452 FILLER_9_49
*453 FILLER_9_54
*454 FILLER_9_57
*455 FILLER_9_7
*456 FILLER_9_87
*457 FILLER_9_93
*458 PHY_0
*459 PHY_1
*460 PHY_10
*461 PHY_11
*462 PHY_12
*463 PHY_13
*464 PHY_14
*465 PHY_15
*466 PHY_16
*467 PHY_17
*468 PHY_18
*469 PHY_19
*470 PHY_2
*471 PHY_20
*472 PHY_21
*473 PHY_22
*474 PHY_23
*475 PHY_24
*476 PHY_25
*477 PHY_26
*478 PHY_27
*479 PHY_28
*480 PHY_29
*481 PHY_3
*482 PHY_30
*483 PHY_31
*484 PHY_32
*485 PHY_33
*486 PHY_34
*487 PHY_35
*488 PHY_36
*489 PHY_37
*490 PHY_38
*491 PHY_39
*492 PHY_4
*493 PHY_40
*494 PHY_41
*495 PHY_42
*496 PHY_43
*497 PHY_44
*498 PHY_45
*499 PHY_46
*500 PHY_47
*501 PHY_48
*502 PHY_49
*503 PHY_5
*504 PHY_50
*505 PHY_51
*506 PHY_52
*507 PHY_53
*508 PHY_6
*509 PHY_7
*510 PHY_8
*511 PHY_9
*512 TAP_54
*513 TAP_55
*514 TAP_56
*515 TAP_57
*516 TAP_58
*517 TAP_59
*518 TAP_60
*519 TAP_61
*520 TAP_62
*521 TAP_63
*522 TAP_64
*523 TAP_65
*524 TAP_66
*525 TAP_67
*526 TAP_68
*527 TAP_69
*528 TAP_70
*529 TAP_71
*530 TAP_72
*531 TAP_73
*532 TAP_74
*533 TAP_75
*534 TAP_76
*535 TAP_77
*536 TAP_78
*537 TAP_79
*538 TAP_80
*539 TAP_81
*540 TAP_82
*541 TAP_83
*542 TAP_84
*543 TAP_85
*544 TAP_86
*545 TAP_87
*546 TAP_88
*547 TAP_89
*548 TAP_90
*549 TAP_91
*550 TAP_92
*551 TAP_93
*552 _085_
*553 _086_
*554 _087_
*555 _088_
*556 _089_
*557 _090_
*558 _091_
*559 _092_
*560 _093_
*561 _094_
*562 _095_
*563 _096_
*564 _097_
*565 _098_
*566 _099_
*567 _100_
*568 _101_
*569 _102_
*570 _103_
*571 _104_
*572 _105_
*573 _106__5
*574 _107_
*575 _108_
*576 _109_
*577 _110_
*578 _111_
*579 _112__6
*580 _113_
*581 _114_
*582 _115_
*583 _116__7
*584 _117_
*585 _118_
*586 _119_
*587 _120__8
*588 _121_
*589 _122_
*590 _123_
*591 _124__9
*592 _125_
*593 _126_
*594 _127_
*595 _128__10
*596 _129_
*597 _130_
*598 _131_
*599 _132__11
*600 _133_
*601 _134_
*602 _135_
*603 _136__12
*604 _137_
*605 _138_
*606 _139_
*607 _140__13
*608 _141_
*609 _142_
*610 _143_
*611 _144__14
*612 _145_
*613 _146_
*614 _147_
*615 _148__1
*616 _149_
*617 _150_
*618 _151_
*619 _152__2
*620 _153_
*621 _154_
*622 _155_
*623 _156__3
*624 _157_
*625 _158__4
*626 _159_
*627 _160_
*628 _161_
*629 _162_
*630 _163_
*631 _164_
*632 _165_
*633 _166_
*634 _167_
*635 _168_
*636 _169_
*637 _170_
*638 _171_
*639 _172_
*640 _173_
*641 _174_
*642 _175_
*643 _176_
*644 _177_
*645 _178_
*646 _179_
*647 _180_
*648 _181_
*649 _182_
*650 _183_
*651 _184_
*652 _185_
*653 _186_
*654 _187_
*655 _188_
*656 _189_
*657 clkbuf_0__068_
*658 clkbuf_0_serial_clock
*659 clkbuf_0_serial_load
*660 clkbuf_1_0__f__068_
*661 clkbuf_1_0__f_serial_clock
*662 clkbuf_1_0__f_serial_load
*663 clkbuf_1_1__f__068_
*664 clkbuf_1_1__f_serial_clock
*665 clkbuf_1_1__f_serial_load
*666 const_source
*667 fanout18
*668 fanout19
*669 gpio_in_buf
*670 gpio_logic_high
*671 hold1
*672 hold10
*673 hold11
*674 hold12
*675 hold13
*676 hold14
*677 hold15
*678 hold16
*679 hold17
*680 hold18
*681 hold19
*682 hold2
*683 hold3
*684 hold4
*685 hold5
*686 hold6
*687 hold7
*688 hold8
*689 hold9
*690 output1
*691 output10
*692 output11
*693 output12
*694 output13
*695 output14
*696 output15
*697 output16
*698 output17
*699 output2
*700 output3
*701 output4
*702 output5
*703 output6
*704 output7
*705 output8
*706 output9

*PORTS
gpio_defaults[0] I
gpio_defaults[10] I
gpio_defaults[11] I
gpio_defaults[12] I
gpio_defaults[1] I
gpio_defaults[2] I
gpio_defaults[3] I
gpio_defaults[4] I
gpio_defaults[5] I
gpio_defaults[6] I
gpio_defaults[7] I
gpio_defaults[8] I
gpio_defaults[9] I
mgmt_gpio_in O
mgmt_gpio_oeb I
mgmt_gpio_out I
one O
pad_gpio_ana_en O
pad_gpio_ana_pol O
pad_gpio_ana_sel O
pad_gpio_dm[0] O
pad_gpio_dm[1] O
pad_gpio_dm[2] O
pad_gpio_holdover O
pad_gpio_ib_mode_sel O
pad_gpio_in I
pad_gpio_inenb O
pad_gpio_out O
pad_gpio_outenb O
pad_gpio_slow_sel O
pad_gpio_vtrip_sel O
resetn I
resetn_out O
serial_clock I
serial_clock_out O
serial_data_in I
serial_data_out O
serial_load I
serial_load_out O
user_gpio_in O
user_gpio_oeb I
user_gpio_out I
zero O

*D_NET *1 0.00337268
*CONN
*P gpio_defaults[0] I
*I *570:B I *D sky130_fd_sc_hd__or2_1
*I *681:A I *D sky130_fd_sc_hd__dlygate4sd3_1
*CAP
1 gpio_defaults[0] 0.000583626
2 *570:B 2.41714e-05
3 *681:A 8.4707e-05
4 *1:17 0.00107854
5 *1:10 0.00160164
6 *1:10 *577:A 0
7 *1:10 *577:B 0
8 *1:10 *5:14 0
9 *1:10 *93:28 0
10 *1:10 *105:7 0
11 *1:17 *565:C 0
12 *1:17 *627:SET_B 0
13 *1:17 *6:14 0
14 *1:17 *7:12 0
15 *1:17 *7:22 0
16 *1:17 *100:27 0
17 *1:17 *141:75 0
18 *1:17 *174:11 0
19 *1:17 *187:21 0
20 *1:17 *188:8 0
*RES
1 gpio_defaults[0] *1:10 29.7279 
2 *1:10 *1:17 41.2657 
3 *1:17 *681:A 40.0507 
4 *1:10 *570:B 23.6214 
*END

*D_NET *2 0.00241299
*CONN
*P gpio_defaults[10] I
*I *676:A I *D sky130_fd_sc_hd__dlygate4sd3_1
*I *601:B I *D sky130_fd_sc_hd__or2_1
*CAP
1 gpio_defaults[10] 0.000291704
2 *676:A 0
3 *601:B 0
4 *2:14 0.000914792
5 *2:9 0.0012065
6 *2:9 *3:7 0
7 *2:9 *13:8 0
8 *2:9 *138:8 0
9 *2:14 *3:7 0
10 *2:14 *13:24 0
11 *2:14 *77:8 0
12 *2:14 *100:15 0
13 *2:14 *100:40 0
14 *2:14 *100:74 0
15 *2:14 *100:81 0
16 *2:14 *102:8 0
17 *2:14 *134:13 0
18 *2:14 *141:24 0
19 *2:14 *168:16 0
*RES
1 gpio_defaults[10] *2:9 7.83 
2 *2:9 *2:14 38.9043 
3 *2:14 *601:B 23 
4 *2:9 *676:A 38 
*END

*D_NET *3 0.00385361
*CONN
*P gpio_defaults[11] I
*I *605:B I *D sky130_fd_sc_hd__or2_1
*I *679:A I *D sky130_fd_sc_hd__dlygate4sd3_1
*CAP
1 gpio_defaults[11] 0.000780472
2 *605:B 0.00066878
3 *679:A 0
4 *3:13 0.000477554
5 *3:7 0.00192681
6 *605:B *11:18 0
7 *605:B *55:33 0
8 *605:B *154:26 0
9 *3:7 *4:10 0
10 *3:7 *13:24 0
11 *3:7 *33:8 0
12 *3:7 *102:8 0
13 *3:7 *126:69 0
14 *3:7 *126:84 0
15 *3:13 *633:SET_B 0
16 *3:13 *55:33 0
17 *3:13 *129:10 0
18 *3:13 *154:26 0
19 *3:13 *168:16 0
20 *3:13 *182:26 0
21 *2:9 *3:7 0
22 *2:14 *3:7 0
*RES
1 gpio_defaults[11] *3:7 28.4968 
2 *3:7 *3:13 30.0418 
3 *3:13 *679:A 23 
4 *3:7 *605:B 49.4769 
*END

*D_NET *4 0.0114069
*CONN
*P gpio_defaults[12] I
*I *612:B I *D sky130_fd_sc_hd__nand2_1
*I *609:B I *D sky130_fd_sc_hd__or2_1
*CAP
1 gpio_defaults[12] 0.000913238
2 *612:B 0
3 *609:B 0
4 *4:51 0.00166935
5 *4:39 0.00391075
6 *4:29 0.00312087
7 *4:10 0.0017927
8 *4:10 *595:A 0
9 *4:10 *639:RESET_B 0
10 *4:10 *686:A 0
11 *4:10 *33:8 0
12 *4:10 *122:64 0
13 *4:10 *126:84 0
14 *4:10 *136:39 0
15 *4:29 *11:21 0
16 *4:29 *82:8 0
17 *4:29 *100:64 0
18 *4:29 *179:12 0
19 *4:39 pad_gpio_dm[0] 0
20 *4:39 pad_gpio_holdover 0
21 *4:39 pad_gpio_ib_mode_sel 0
22 *4:39 pad_gpio_out 0
23 *4:39 pad_gpio_outenb 0
24 *4:39 pad_gpio_vtrip_sel 0
25 *4:39 *13:27 0
26 *4:39 *15:11 0
27 *4:39 *15:36 0
28 *4:39 *16:10 0
29 *4:39 *30:17 0
30 *4:39 *34:30 0
31 *4:39 *81:16 0
32 *4:39 *83:28 0
33 *4:39 *130:35 0
34 *4:51 pad_gpio_ana_pol 0
35 *4:51 zero 0
36 *4:51 *35:16 0
37 *4:51 *39:11 0
38 *4:51 *42:19 0
39 *4:51 *48:20 0
40 *4:51 *56:17 0
41 *4:51 *83:40 0
42 *4:51 *84:12 0
43 *4:51 *132:20 0
44 *3:7 *4:10 0
*RES
1 gpio_defaults[12] *4:10 37.91 
2 *4:10 *609:B 23 
3 *4:10 *4:29 46.1689 
4 *4:29 *4:39 47.0307 
5 *4:39 *4:51 43.4242 
6 *4:51 *612:B 38 
*END

*D_NET *5 0.0141157
*CONN
*P gpio_defaults[1] I
*I *600:B I *D sky130_fd_sc_hd__nand2_1
*I *597:B I *D sky130_fd_sc_hd__or2_1
*CAP
1 gpio_defaults[1] 0.000718944
2 *600:B 0
3 *597:B 0
4 *5:62 0.000421021
5 *5:50 0.00179007
6 *5:43 0.00295203
7 *5:40 0.0026859
8 *5:32 0.00296587
9 *5:14 0.0025819
10 *5:14 *577:A 0
11 *5:14 *6:5 0
12 *5:14 *8:14 0
13 *5:14 *93:28 0
14 *5:14 *100:93 0
15 *5:14 *105:7 0
16 *5:14 *139:8 0
17 *5:32 *633:SET_B 0
18 *5:32 *640:CLK 0
19 *5:32 *9:12 0
20 *5:32 *10:29 0
21 *5:32 *34:30 0
22 *5:32 *55:33 0
23 *5:32 *100:93 0
24 *5:32 *119:9 0
25 *5:32 *129:16 0
26 *5:32 *148:24 0
27 *5:32 *152:11 0
28 *5:32 *168:8 0
29 *5:32 *176:13 0
30 *5:32 *180:21 0
31 *5:40 pad_gpio_vtrip_sel 0
32 *5:40 *34:30 0
33 *5:40 *41:11 0
34 *5:40 *55:33 0
35 *5:40 *88:44 0
36 *5:43 mgmt_gpio_in 0
37 *5:43 *13:33 0
38 *5:43 *48:12 0
39 *5:43 *55:33 0
40 *5:43 *77:12 0
41 *5:50 pad_gpio_ana_sel 0
42 *5:50 *563:A 0
43 *5:50 *566:A 0
44 *5:50 *48:20 0
45 *5:50 *56:17 0
46 *5:50 *88:30 0
47 *5:50 *90:10 0
48 *5:50 *132:20 0
49 *5:62 *567:B 0
50 *5:62 *600:A 0
51 *5:62 *88:18 0
52 *5:62 *91:8 0
53 *5:62 *125:65 0
54 *1:10 *5:14 0
*RES
1 gpio_defaults[1] *5:14 33.1043 
2 *5:14 *597:B 23 
3 *5:14 *5:32 48.6931 
4 *5:32 *5:40 12.8029 
5 *5:40 *5:43 49.6979 
6 *5:43 *5:50 49.4661 
7 *5:50 *5:62 40.5643 
8 *5:62 *600:B 23 
*END

*D_NET *6 0.00231499
*CONN
*P gpio_defaults[2] I
*I *577:B I *D sky130_fd_sc_hd__or2_1
*I *678:A I *D sky130_fd_sc_hd__dlygate4sd3_1
*CAP
1 gpio_defaults[2] 0.000233874
2 *577:B 8.4707e-05
3 *678:A 0
4 *6:14 0.000838916
5 *6:5 0.0011575
6 *577:B *577:A 0
7 *6:5 *7:12 0
8 *6:5 *8:14 0
9 *6:14 *663:A 0
10 *6:14 *7:12 0
11 *6:14 *8:14 0
12 *6:14 *125:8 0
13 *6:14 *188:8 0
14 *1:10 *577:B 0
15 *1:17 *6:14 0
16 *5:14 *6:5 0
*RES
1 gpio_defaults[2] *6:5 6.235 
2 *6:5 *6:14 37.0814 
3 *6:14 *678:A 23 
4 *6:5 *577:B 40.0507 
*END

*D_NET *7 0.00718532
*CONN
*P gpio_defaults[3] I
*I *589:B I *D sky130_fd_sc_hd__or2_1
*I *680:A I *D sky130_fd_sc_hd__dlygate4sd3_1
*CAP
1 gpio_defaults[3] 0.000930607
2 *589:B 0.000124066
3 *680:A 0.000189721
4 *7:42 0.00155123
5 *7:25 0.00189349
6 *7:22 0.000921104
7 *7:12 0.00157511
8 *589:B *78:5 0
9 *589:B *100:40 0
10 *680:A *642:RESET_B 0
11 *680:A *12:20 0
12 *7:12 *565:C 0
13 *7:12 *9:12 0
14 *7:12 *27:8 0
15 *7:12 *187:21 0
16 *7:22 *627:SET_B 0
17 *7:22 *9:24 0
18 *7:22 *12:20 0
19 *7:22 *194:21 0
20 *7:25 *642:RESET_B 0
21 *7:25 *12:20 0
22 *7:25 *123:67 0
23 *7:25 *194:21 0
24 *7:42 pad_gpio_dm[2] 0
25 *7:42 *634:SET_B 0
26 *7:42 *49:22 0
27 *7:42 *59:11 0
28 *7:42 *78:13 0
29 *7:42 *104:16 0
30 *7:42 *104:129 0
31 *7:42 *121:18 0
32 *7:42 *122:42 0
33 *7:42 *126:9 0
34 *7:42 *129:16 0
35 *7:42 *134:13 0
36 *1:17 *7:12 0
37 *1:17 *7:22 0
38 *6:5 *7:12 0
39 *6:14 *7:12 0
*RES
1 gpio_defaults[3] *7:12 39.215 
2 *7:12 *7:22 46.9236 
3 *7:22 *7:25 22.3639 
4 *7:25 *680:A 42.7332 
5 *7:25 *7:42 49.7735 
6 *7:42 *589:B 26.0036 
*END

*D_NET *8 0.00282615
*CONN
*P gpio_defaults[4] I
*I *677:A I *D sky130_fd_sc_hd__dlygate4sd3_1
*I *593:B I *D sky130_fd_sc_hd__or2_1
*CAP
1 gpio_defaults[4] 0.000318435
2 *677:A 0
3 *593:B 0
4 *8:21 0.000465157
5 *8:14 0.00109464
6 *8:10 0.000947916
7 *8:10 *9:12 0
8 *8:10 *27:8 0
9 *8:14 *663:A 0
10 *8:14 *125:8 0
11 *8:14 *139:8 0
12 *8:14 *173:7 0
13 *8:14 *187:6 0
14 *8:21 *663:A 0
15 *8:21 *119:19 0
16 *8:21 *139:8 0
17 *5:14 *8:14 0
18 *6:5 *8:14 0
19 *6:14 *8:14 0
*RES
1 gpio_defaults[4] *8:10 37.8714 
2 *8:10 *8:14 31.6129 
3 *8:14 *8:21 42.1593 
4 *8:21 *593:B 23 
5 *8:14 *677:A 23 
*END

*D_NET *9 0.00659874
*CONN
*P gpio_defaults[5] I
*I *613:B I *D sky130_fd_sc_hd__or2_1
*I *616:B I *D sky130_fd_sc_hd__nand2_1
*CAP
1 gpio_defaults[5] 0.000791862
2 *613:B 0.000124066
3 *616:B 0.000276636
4 *9:29 0.00142517
5 *9:24 0.00210681
6 *9:12 0.00187419
7 *613:B *124:17 0
8 *613:B *140:36 0
9 *616:B *59:11 0
10 *616:B *71:10 0
11 *616:B *76:17 0
12 *616:B *103:39 0
13 *616:B *140:36 0
14 *9:12 *565:C 0
15 *9:12 *640:CLK 0
16 *9:12 *10:29 0
17 *9:12 *27:8 0
18 *9:12 *141:49 0
19 *9:12 *141:75 0
20 *9:12 *159:12 0
21 *9:24 *648:RESET_B 0
22 *9:24 *100:27 0
23 *9:24 *126:51 0
24 *9:24 *141:49 0
25 *9:24 *148:24 0
26 *9:24 *168:8 0
27 *9:24 *194:21 0
28 *9:29 *636:SET_B 0
29 *9:29 *22:10 0
30 *9:29 *23:8 0
31 *9:29 *59:11 0
32 *9:29 *71:10 0
33 *9:29 *81:8 0
34 *9:29 *124:8 0
35 *9:29 *134:13 0
36 *9:29 *140:36 0
37 *9:29 *175:12 0
38 *9:29 *179:55 0
39 *9:29 *181:9 0
40 *9:29 *191:19 0
41 *9:29 *193:11 0
42 *5:32 *9:12 0
43 *7:12 *9:12 0
44 *7:22 *9:24 0
45 *8:10 *9:12 0
*RES
1 gpio_defaults[5] *9:12 35.7764 
2 *9:12 *9:24 46.6065 
3 *9:24 *9:29 27.1461 
4 *9:29 *616:B 44.9393 
5 *9:29 *613:B 41.0036 
*END

*D_NET *10 0.00889475
*CONN
*P gpio_defaults[6] I
*I *620:B I *D sky130_fd_sc_hd__nand2_1
*I *617:B I *D sky130_fd_sc_hd__or2_1
*CAP
1 gpio_defaults[6] 0.00193779
2 *620:B 0.000463742
3 *617:B 0
4 *10:54 0.00138265
5 *10:38 0.00204585
6 *10:29 0.00306472
7 *620:B *637:SET_B 0
8 *620:B *84:12 0
9 *620:B *124:23 0
10 *620:B *126:9 0
11 *620:B *140:8 0
12 *620:B *140:19 0
13 *620:B *145:10 0
14 *620:B *170:8 0
15 *10:29 *11:18 0
16 *10:29 *13:24 0
17 *10:29 *31:8 0
18 *10:29 *62:23 0
19 *10:29 *80:8 0
20 *10:29 *97:20 0
21 *10:29 *122:64 0
22 *10:29 *130:12 0
23 *10:29 *147:26 0
24 *10:29 *152:11 0
25 *10:29 *154:26 0
26 *10:29 *172:15 0
27 *10:38 *635:SET_B 0
28 *10:38 *662:A 0
29 *10:38 *14:8 0
30 *10:38 *79:14 0
31 *10:38 *121:18 0
32 *10:38 *122:50 0
33 *10:38 *122:64 0
34 *10:38 *130:12 0
35 *10:38 *155:12 0
36 *10:38 *165:8 0
37 *10:38 *185:6 0
38 *10:38 *193:22 0
39 *10:54 *30:17 0
40 *10:54 *32:27 0
41 *10:54 *85:12 0
42 *10:54 *131:11 0
43 *10:54 *140:113 0
44 *10:54 *142:14 0
45 *10:54 *153:10 0
46 *5:32 *10:29 0
47 *9:12 *10:29 0
*RES
1 gpio_defaults[6] *10:29 44.1741 
2 *10:29 *10:38 44.3418 
3 *10:38 *617:B 23 
4 *10:38 *10:54 43.0376 
5 *10:54 *620:B 49.9832 
*END

*D_NET *11 0.00783578
*CONN
*P gpio_defaults[7] I
*I *621:B I *D sky130_fd_sc_hd__or2_1
*I *624:B I *D sky130_fd_sc_hd__nand2_1
*CAP
1 gpio_defaults[7] 0.00187885
2 *621:B 0
3 *624:B 2.0535e-05
4 *11:32 0.000809311
5 *11:24 0.000870488
6 *11:21 0.00122973
7 *11:18 0.00302687
8 *11:18 *12:9 0
9 *11:18 *12:16 0
10 *11:18 *55:33 0
11 *11:18 *62:23 0
12 *11:18 *97:20 0
13 *11:18 *100:91 0
14 *11:18 *154:26 0
15 *11:18 *172:15 0
16 *11:18 *183:12 0
17 *11:21 *553:A 0
18 *11:21 *15:45 0
19 *11:21 *60:8 0
20 *11:21 *64:11 0
21 *11:21 *82:8 0
22 *11:21 *85:12 0
23 *11:21 *100:64 0
24 *11:21 *106:6 0
25 *11:21 *140:113 0
26 *11:21 *148:24 0
27 *11:21 *164:11 0
28 *11:21 *180:21 0
29 *11:21 *181:17 0
30 *11:24 *621:A 0
31 *11:32 *32:27 0
32 *11:32 *70:11 0
33 *11:32 *85:22 0
34 *11:32 *140:103 0
35 *11:32 *155:12 0
36 *605:B *11:18 0
37 *4:29 *11:21 0
38 *10:29 *11:18 0
*RES
1 gpio_defaults[7] *11:18 47.9812 
2 *11:18 *11:21 38.2532 
3 *11:21 *11:24 17.0507 
4 *11:24 *11:32 49.9271 
5 *11:32 *624:B 23.4971 
6 *11:24 *621:B 23 
*END

*D_NET *12 0.00660331
*CONN
*P gpio_defaults[8] I
*I *581:B I *D sky130_fd_sc_hd__or2_1
*I *584:B I *D sky130_fd_sc_hd__nand2_1
*CAP
1 gpio_defaults[8] 0.000425138
2 *581:B 0
3 *584:B 1.21912e-05
4 *12:20 0.0017313
5 *12:16 0.00286432
6 *12:9 0.00157035
7 *12:9 *13:8 0
8 *12:9 *161:8 0
9 *12:9 *182:26 0
10 *12:16 *40:14 0
11 *12:16 *52:16 0
12 *12:16 *100:27 0
13 *12:16 *104:129 0
14 *12:16 *161:8 0
15 *12:16 *167:9 0
16 *12:16 *172:15 0
17 *12:16 *182:26 0
18 *12:20 *642:RESET_B 0
19 *12:20 *30:10 0
20 *12:20 *49:22 0
21 *12:20 *63:29 0
22 *12:20 *67:17 0
23 *12:20 *101:34 0
24 *12:20 *122:6 0
25 *12:20 *122:11 0
26 *12:20 *178:8 0
27 *12:20 *194:11 0
28 *12:20 *194:21 0
29 *680:A *12:20 0
30 *7:22 *12:20 0
31 *7:25 *12:20 0
32 *11:18 *12:9 0
33 *11:18 *12:16 0
*RES
1 gpio_defaults[8] *12:9 11.3514 
2 *12:9 *12:16 39.7642 
3 *12:16 *12:20 45.5793 
4 *12:20 *584:B 46.3211 
5 *12:9 *581:B 38 
*END

*D_NET *13 0.0128396
*CONN
*P gpio_defaults[9] I
*I *588:B I *D sky130_fd_sc_hd__nand2_1
*I *585:B I *D sky130_fd_sc_hd__or2_1
*CAP
1 gpio_defaults[9] 0.000653766
2 *588:B 0
3 *585:B 3.50807e-05
4 *13:43 0.00177093
5 *13:33 0.00262287
6 *13:27 0.00217429
7 *13:24 0.00310806
8 *13:8 0.00247456
9 *13:8 *572:A 0
10 *13:8 *585:A 0
11 *13:8 *127:23 0
12 *13:8 *182:26 0
13 *13:24 pad_gpio_vtrip_sel 0
14 *13:24 *83:20 0
15 *13:24 *147:26 0
16 *13:24 *154:26 0
17 *13:27 pad_gpio_dm[0] 0
18 *13:27 pad_gpio_holdover 0
19 *13:27 pad_gpio_ib_mode_sel 0
20 *13:27 pad_gpio_out 0
21 *13:27 *26:20 0
22 *13:27 *34:13 0
23 *13:27 *68:28 0
24 *13:27 *83:26 0
25 *13:27 *83:28 0
26 *13:27 *157:18 0
27 *13:33 mgmt_gpio_in 0
28 *13:33 pad_gpio_ana_sel 0
29 *13:33 *16:10 0
30 *13:33 *77:20 0
31 *13:33 *130:38 0
32 *13:33 *130:41 0
33 *13:33 *132:23 0
34 *13:43 *42:19 0
35 *13:43 *56:17 0
36 *13:43 *59:11 0
37 *13:43 *69:23 0
38 *13:43 *97:11 0
39 *13:43 *104:32 0
40 *2:9 *13:8 0
41 *2:14 *13:24 0
42 *3:7 *13:24 0
43 *4:39 *13:27 0
44 *5:43 *13:33 0
45 *10:29 *13:24 0
46 *12:9 *13:8 0
*RES
1 gpio_defaults[9] *13:8 31.8821 
2 *13:8 *585:B 23.8493 
3 *13:8 *13:24 40.972 
4 *13:24 *13:27 49.8311 
5 *13:27 *13:33 45.2161 
6 *13:33 *13:43 33.2987 
7 *13:43 *588:B 23 
*END

*D_NET *14 0.00393795
*CONN
*P mgmt_gpio_in O
*I *656:Z O *D sky130_fd_sc_hd__ebufn_8
*CAP
1 mgmt_gpio_in 0.00195678
2 *656:Z 1.21912e-05
3 *14:8 0.00196897
4 mgmt_gpio_in one 0
5 mgmt_gpio_in pad_gpio_dm[0] 0
6 mgmt_gpio_in pad_gpio_dm[1] 0
7 mgmt_gpio_in pad_gpio_dm[2] 0
8 mgmt_gpio_in zero 0
9 mgmt_gpio_in *68:25 0
10 mgmt_gpio_in *77:12 0
11 mgmt_gpio_in *122:42 0
12 mgmt_gpio_in *130:38 0
13 *5:43 mgmt_gpio_in 0
14 *10:38 *14:8 0
15 *13:33 mgmt_gpio_in 0
*RES
1 *656:Z *14:8 46.3211 
2 *14:8 mgmt_gpio_in 39.2887 
*END

*D_NET *15 0.00966486
*CONN
*P mgmt_gpio_oeb I
*I *555:B I *D sky130_fd_sc_hd__and3_1
*I *557:A I *D sky130_fd_sc_hd__nand2_1
*I *562:B I *D sky130_fd_sc_hd__nand3_1
*CAP
1 mgmt_gpio_oeb 5.62367e-05
2 *555:B 0
3 *557:A 0
4 *562:B 8.4707e-05
5 *15:45 0.000112356
6 *15:40 0.00157462
7 *15:39 0.002377
8 *15:36 0.00144814
9 *15:25 0.00070336
10 *15:11 0.00175343
11 *15:7 0.00155501
12 *15:7 one 0
13 *15:11 pad_gpio_dm[0] 0
14 *15:11 *130:41 0
15 *15:25 *26:32 0
16 *15:25 *86:8 0
17 *15:25 *88:30 0
18 *15:25 *95:9 0
19 *15:25 *164:11 0
20 *15:36 pad_gpio_dm[0] 0
21 *15:36 *130:41 0
22 *15:39 *56:18 0
23 *15:39 *97:12 0
24 *15:39 *132:24 0
25 *15:40 *634:CLK_N 0
26 *15:40 *25:7 0
27 *15:40 *69:31 0
28 *15:45 *180:21 0
29 *15:45 *181:17 0
30 *4:39 *15:11 0
31 *4:39 *15:36 0
32 *11:21 *15:45 0
*RES
1 mgmt_gpio_oeb *15:7 8.24267 
2 *15:7 *15:11 38.5625 
3 *15:11 *562:B 25.0507 
4 *15:11 *15:25 48.1043 
5 *15:25 *557:A 23 
6 *15:7 *15:36 43.1846 
7 *15:36 *15:39 39.0907 
8 *15:39 *15:40 35.4007 
9 *15:40 *15:45 32.9621 
10 *15:45 *555:B 23 
*END

*D_NET *16 0.00384014
*CONN
*P mgmt_gpio_out I
*I *563:A I *D sky130_fd_sc_hd__inv_2
*CAP
1 mgmt_gpio_out 0.000889897
2 *563:A 0.00103017
3 *16:10 0.00192007
4 *563:A *74:7 0
5 *563:A *88:30 0
6 *563:A *96:8 0
7 *16:10 one 0
8 *16:10 pad_gpio_ana_sel 0
9 *16:10 pad_gpio_dm[0] 0
10 *16:10 *30:17 0
11 *16:10 *83:28 0
12 *16:10 *147:20 0
13 *16:10 *157:17 0
14 *4:39 *16:10 0
15 *5:50 *563:A 0
16 *13:33 *16:10 0
*RES
1 mgmt_gpio_out *16:10 43.0088 
2 *16:10 *563:A 47.94 
*END

*D_NET *17 0.00389929
*CONN
*P one O
*I *666:HI O *D sky130_fd_sc_hd__conb_1
*CAP
1 one 0.00153961
2 *666:HI 0.000410034
3 *17:9 0.00194964
4 one pad_gpio_dm[0] 0
5 one *26:32 0
6 one *55:25 0
7 one *56:17 0
8 one *74:11 0
9 one *82:8 0
10 one *88:36 0
11 one *146:16 0
12 one *157:17 0
13 one *179:17 0
14 *17:9 *47:9 0
15 *17:9 *77:30 0
16 mgmt_gpio_in one 0
17 *15:7 one 0
18 *16:10 one 0
*RES
1 *666:HI *17:9 48.627 
2 *17:9 one 38.6663 
*END

*D_NET *18 0.00325201
*CONN
*P pad_gpio_ana_en O
*I *690:X O *D sky130_fd_sc_hd__buf_2
*CAP
1 pad_gpio_ana_en 0.00118707
2 *690:X 0.000438936
3 *18:7 0.001626
4 pad_gpio_ana_en pad_gpio_ana_pol 0
5 pad_gpio_ana_en pad_gpio_dm[1] 0
6 pad_gpio_ana_en *30:17 0
7 pad_gpio_ana_en *88:30 0
8 pad_gpio_ana_en *132:20 0
9 *18:7 *55:19 0
*RES
1 *690:X *18:7 48.6264 
2 *18:7 pad_gpio_ana_en 25.758 
*END

*D_NET *19 0.00446415
*CONN
*P pad_gpio_ana_pol O
*I *699:X O *D sky130_fd_sc_hd__buf_2
*CAP
1 pad_gpio_ana_pol 0.00221988
2 *699:X 1.21912e-05
3 *19:8 0.00223207
4 pad_gpio_ana_pol pad_gpio_ana_sel 0
5 pad_gpio_ana_pol pad_gpio_dm[1] 0
6 pad_gpio_ana_pol zero 0
7 pad_gpio_ana_pol *35:16 0
8 pad_gpio_ana_pol *68:25 0
9 pad_gpio_ana_pol *77:20 0
10 pad_gpio_ana_pol *81:16 0
11 pad_gpio_ana_pol *132:20 0
12 pad_gpio_ana_pol *147:17 0
13 pad_gpio_ana_en pad_gpio_ana_pol 0
14 *4:51 pad_gpio_ana_pol 0
*RES
1 *699:X *19:8 46.3211 
2 *19:8 pad_gpio_ana_pol 35.7152 
*END

*D_NET *20 0.00355378
*CONN
*P pad_gpio_ana_sel O
*I *700:X O *D sky130_fd_sc_hd__buf_2
*CAP
1 pad_gpio_ana_sel 0.00176474
2 *700:X 1.21519e-05
3 *20:8 0.00177689
4 pad_gpio_ana_sel pad_gpio_dm[0] 0
5 pad_gpio_ana_sel pad_gpio_dm[1] 0
6 pad_gpio_ana_sel *39:11 0
7 pad_gpio_ana_sel *48:20 0
8 pad_gpio_ana_sel *56:17 0
9 pad_gpio_ana_sel *130:38 0
10 pad_gpio_ana_sel *147:20 0
11 pad_gpio_ana_pol pad_gpio_ana_sel 0
12 *5:50 pad_gpio_ana_sel 0
13 *13:33 pad_gpio_ana_sel 0
14 *16:10 pad_gpio_ana_sel 0
*RES
1 *700:X *20:8 46.3211 
2 *20:8 pad_gpio_ana_sel 39.0484 
*END

*D_NET *21 0.00333995
*CONN
*P pad_gpio_dm[0] O
*I *701:X O *D sky130_fd_sc_hd__buf_2
*CAP
1 pad_gpio_dm[0] 0.00160438
2 *701:X 6.55964e-05
3 *21:8 0.00166997
4 pad_gpio_dm[0] pad_gpio_dm[1] 0
5 pad_gpio_dm[0] *30:17 0
6 pad_gpio_dm[0] *68:25 0
7 pad_gpio_dm[0] *81:24 0
8 pad_gpio_dm[0] *88:36 0
9 pad_gpio_dm[0] *157:17 0
10 pad_gpio_dm[0] *157:18 0
11 *21:8 *700:A 0
12 mgmt_gpio_in pad_gpio_dm[0] 0
13 one pad_gpio_dm[0] 0
14 pad_gpio_ana_sel pad_gpio_dm[0] 0
15 *4:39 pad_gpio_dm[0] 0
16 *13:27 pad_gpio_dm[0] 0
17 *15:11 pad_gpio_dm[0] 0
18 *15:36 pad_gpio_dm[0] 0
19 *16:10 pad_gpio_dm[0] 0
*RES
1 *701:X *21:8 47.7296 
2 *21:8 pad_gpio_dm[0] 34.8227 
*END

*D_NET *22 0.00452826
*CONN
*P pad_gpio_dm[1] O
*I *702:X O *D sky130_fd_sc_hd__buf_2
*CAP
1 pad_gpio_dm[1] 0.00211938
2 *702:X 0.000144749
3 *22:10 0.00226413
4 pad_gpio_dm[1] pad_gpio_dm[2] 0
5 pad_gpio_dm[1] *30:17 0
6 pad_gpio_dm[1] *42:19 0
7 pad_gpio_dm[1] *54:13 0
8 pad_gpio_dm[1] *81:16 0
9 pad_gpio_dm[1] *122:42 0
10 pad_gpio_dm[1] *132:20 0
11 *22:10 *191:19 0
12 mgmt_gpio_in pad_gpio_dm[1] 0
13 pad_gpio_ana_en pad_gpio_dm[1] 0
14 pad_gpio_ana_pol pad_gpio_dm[1] 0
15 pad_gpio_ana_sel pad_gpio_dm[1] 0
16 pad_gpio_dm[0] pad_gpio_dm[1] 0
17 *9:29 *22:10 0
*RES
1 *702:X *22:10 49.7596 
2 *22:10 pad_gpio_dm[1] 31.7471 
*END

*D_NET *23 0.0038025
*CONN
*P pad_gpio_dm[2] O
*I *703:X O *D sky130_fd_sc_hd__buf_2
*CAP
1 pad_gpio_dm[2] 0.00187569
2 *703:X 2.55622e-05
3 *23:8 0.00190125
4 pad_gpio_dm[2] pad_gpio_holdover 0
5 pad_gpio_dm[2] *40:14 0
6 pad_gpio_dm[2] *59:11 0
7 pad_gpio_dm[2] *60:16 0
8 pad_gpio_dm[2] *122:42 0
9 pad_gpio_dm[2] *130:35 0
10 pad_gpio_dm[2] *179:55 0
11 mgmt_gpio_in pad_gpio_dm[2] 0
12 pad_gpio_dm[1] pad_gpio_dm[2] 0
13 *7:42 pad_gpio_dm[2] 0
14 *9:29 *23:8 0
*RES
1 *703:X *23:8 46.6732 
2 *23:8 pad_gpio_dm[2] 8.12373 
*END

*D_NET *24 0.00528478
*CONN
*P pad_gpio_holdover O
*I *704:X O *D sky130_fd_sc_hd__buf_2
*CAP
1 pad_gpio_holdover 9.51698e-05
2 *704:X 0
3 *24:11 0.00125884
4 *24:7 0.00254722
5 *24:4 0.00138355
6 pad_gpio_holdover pad_gpio_ib_mode_sel 0
7 *24:7 *32:37 0
8 *24:7 *34:13 0
9 *24:7 *56:21 0
10 *24:7 *56:29 0
11 *24:11 pad_gpio_ib_mode_sel 0
12 *24:11 pad_gpio_inenb 0
13 *24:11 pad_gpio_slow_sel 0
14 *24:11 *25:16 0
15 *24:11 *26:25 0
16 *24:11 *30:20 0
17 *24:11 *32:12 0
18 *24:11 *32:15 0
19 *24:11 *32:36 0
20 *24:11 *34:21 0
21 *24:11 *35:30 0